Microsoft (R) COFF/PE Dumper Version 14.29.30137.0
Copyright (C) Microsoft Corporation.  All rights reserved.


Dump of file C:\Windows\WinSxS\amd64_microsoft-windows-a..ence-mitigations-c4_31bf3856ad364e35_10.0.19041.1_none_c216468b91a73e4d\AcSpecfc.dll

File Type: DLL

  Image has the following dependencies:

    apphelp.dll
    msvcrt.dll
    ntdll.dll
    api-ms-win-core-registry-l1-1-0.dll
    KERNEL32.dll
    ADVAPI32.dll
    ole32.dll
    msi.dll
    WINSPOOL.DRV

  Section contains the following exports for AcSpecfc.dll

    00000000 characteristics
    94DF2698 time date stamp
        0.00 version
           1 ordinal base
           2 number of functions
           2 number of names

    ordinal hint RVA      name

          1    0 000092C0 GetHookAPIs
          2    1 00009370 NotifyShims

  Section contains the following imports:

    apphelp.dll
             18000B358 Import Address Table
             18000FDF0 Import Name Table
                     0 time date stamp
                     0 Index of first forwarder reference

                          1D SE_COM_AddServer
                          1F SE_COM_HookObject
                          20 SE_COM_Lookup
                          34 SE_ShimDPF
                          1C SE_COM_AddHook
                          2A SE_GetShimId

    msvcrt.dll
             18000B3A0 Import Address Table
             18000FE38 Import Name Table
                     0 time date stamp
                     0 Index of first forwarder reference

                         494 memmove
                          5B __CxxFrameHandler3
                         38A _wcsicmp
                          4B _CxxThrowException
                          55 _XcptFilter
                         492 memcpy
                         50B wcsncmp
                         510 wcsrchr
                         394 _wcsnicmp
                         369 _vsnwprintf
                         501 wcschr
                         514 wcsstr
                         513 wcsspn
                         360 _vscwprintf
                         478 iswspace
                          57 __C_specific_handler
                          12 ??1type_info@@UEAA@XZ
                         17D _initterm
                         486 malloc
                         44C free
                          AE _amsg_exit
                         496 memset

    ntdll.dll
             18000B458 Import Address Table
             18000FEF0 Import Name Table
                     0 time date stamp
                     0 Index of first forwarder reference

                         2D2 RtlAllocateHeap
                         3F5 RtlFreeHeap
                         1E6 NtQueryKey
                         627 RtlVirtualUnwind
                         4E8 RtlLookupFunctionEntry
                         2F2 RtlCaptureContext

    api-ms-win-core-registry-l1-1-0.dll
             18000B328 Import Address Table
             18000FDC0 Import Name Table
                     0 time date stamp
                     0 Index of first forwarder reference

                          1E RegOpenKeyExW
                          14 RegGetValueW
                          25 RegQueryValueExW
                           0 RegCloseKey
                          2E RegSetValueExW

    KERNEL32.dll
             18000B190 Import Address Table
             18000FC28 Import Name Table
                     0 time date stamp
                     0 Index of first forwarder reference

                         242 GetEnvironmentVariableW
                         523 SetEnvironmentVariableW
                          E7 CreateProcessW
                          88 CloseHandle
                         269 GetLastError
                         411 OpenProcess
                         3AD K32GetProcessImageFileNameW
                         39F K32EnumProcesses
                         58D Sleep
                          F4 CreateThread
                         5E8 WaitForSingleObject
                         2B7 GetProcAddress
                         310 GetTickCount
                         2F2 GetSystemTimeAsFileTime
                         224 GetCurrentThreadId
                         451 QueryPerformanceCounter
                         59C TerminateProcess
                         21F GetCurrentProcess
                         57D SetUnhandledExceptionFilter
                         5BE UnhandledExceptionFilter
                         24E GetFileAttributesW
                         3D0 LocalAlloc
                         331 GetWindowsDirectoryW
                         27C GetModuleFileNameW
                         3F5 MultiByteToWideChar
                         354 HeapFree
                         220 GetCurrentProcessId
                         27D GetModuleHandleA
                         3D5 LocalFree
                         326 GetVersionExW
                         5AF TlsFree
                         5AE TlsAlloc
                         5B0 TlsGetValue
                         5B1 TlsSetValue
                         2BD GetProcessHeap
                         350 HeapAlloc
                         27F GetModuleHandleExW
                         17D FindClose
                         188 FindFirstFileW
                         3F1 MoveFileW
                         16A ExpandEnvironmentStringsW
                         166 ExitProcess
                         245 GetExitCodeProcess
                         4E7 SearchPathW
                         2E9 GetSystemDirectoryW
                         280 GetModuleHandleW
                         1DF GetCommandLineW

    ADVAPI32.dll
             18000B138 Import Address Table
             18000FBD0 Import Name Table
                     0 time date stamp
                     0 Index of first forwarder reference

                         251 QueryServiceStatusEx
                          6A ControlService
                         2FB StartServiceW
                         217 OpenSCManagerW
                         219 OpenServiceW
                          65 CloseServiceHandle
                         1D7 LsaOpenPolicy
                         1E0 LsaQueryInformationPolicy
                         1C3 LsaFreeMemory
                         129 EventWriteTransfer

    ole32.dll
             18000B490 Import Address Table
             18000FF28 Import Name Table
                     0 time date stamp
                     0 Index of first forwarder reference

                          8B CoTaskMemAlloc
                          8C CoTaskMemFree

    msi.dll
             18000B390 Import Address Table
             18000FE28 Import Name Table
                     0 time date stamp
                     0 Index of first forwarder reference

                             Ordinal   145

    WINSPOOL.DRV
             18000B310 Import Address Table
             18000FDA8 Import Name Table
                     0 time date stamp
                     0 Index of first forwarder reference

                          96 OpenPrinterW
                          55 EnumFormsW

  Summary

        1000 .data
        1000 .pdata
        6000 .rdata
        1000 .reloc
        1000 .rsrc
        A000 .text
