Microsoft (R) COFF/PE Dumper Version 14.29.30137.0
Copyright (C) Microsoft Corporation.  All rights reserved.


Dump of file C:\Windows\WinSxS\amd64_microsoft-windows-a..ence-mitigations-c3_31bf3856ad364e35_10.0.19041.1387_none_80e12623a7825ce4\AcGenral.dll

File Type: DLL

  Image has the following dependencies:

    apphelp.dll
    msvcrt.dll
    ntdll.dll
    api-ms-win-service-core-l1-1-1.dll
    api-ms-win-service-winsvc-l1-1-0.dll
    api-ms-win-service-management-l1-1-0.dll
    api-ms-win-service-management-l2-1-0.dll
    api-ms-win-eventing-provider-l1-1-0.dll
    SHLWAPI.dll
    USER32.dll
    ole32.dll
    SHELL32.dll
    USERENV.dll
    KERNEL32.dll
    ADVAPI32.dll
    RPCRT4.dll
    MPR.dll
    SspiCli.dll
    api-ms-win-core-apiquery-l1-1-0.dll

  Image has the following delay load dependencies:

    ext-ms-win-ntuser-windowstation-l1-1-0.dll
    pcacli.dll

  Section contains the following exports for AcGenral.dll

    00000000 characteristics
    90E294DC time date stamp
        0.00 version
           1 ordinal base
           2 number of functions
           2 number of names

    ordinal hint RVA      name

          1    0 00004A50 GetHookAPIs
          2    1 00004B00 NotifyShims

  Section contains the following imports:

    apphelp.dll
             18003D788 Import Address Table
             180056210 Import Name Table
                     0 time date stamp
                     0 Index of first forwarder reference

                          B8 SdbReleaseDatabase
                          1B SE_CALLBACK_Lookup
                          1A SE_CALLBACK_AddHook
                          85 SdbGetStringTagPtr
                          5A SdbFindNextTag
                          53 SdbFindFirstTag
                          9A SdbOpenLocalDatabase
                          34 SE_ShimDPF
                          2A SE_GetShimId
                          1F SE_COM_HookObject
                          20 SE_COM_Lookup
                          1D SE_COM_AddServer
                          1C SE_COM_AddHook
                          8A SdbInitDatabase
                          7E SdbGetPDBFromGUID
                          BA SdbResolveDatabase

    msvcrt.dll
             18003D810 Import Address Table
             180056298 Import Name Table
                     0 time date stamp
                     0 Index of first forwarder reference

                          5B __CxxFrameHandler3
                         38A _wcsicmp
                         369 _vsnwprintf
                          55 _XcptFilter
                          AE _amsg_exit
                         44C free
                         394 _wcsnicmp
                         4C1 strchr
                         4D9 strtoul
                         518 wcstol
                         420 atoi
                         2FA _stricmp
                         363 _vsnprintf
                         4D4 strstr
                         50B wcsncmp
                         405 _wtoi
                         500 wcscat_s
                         517 wcstok_s
                         4D2 strrchr
                         510 wcsrchr
                         501 wcschr
                         50F wcspbrk
                         3A6 _wcsupr
                         514 wcsstr
                         513 wcsspn
                         360 _vscwprintf
                         478 iswspace
                         3F6 _wsplitpath_s
                         472 iswctype
                         4EB towlower
                         4EC towupper
                         505 wcscpy_s
                          12 ??1type_info@@UEAA@XZ
                         486 malloc
                         17D _initterm
                          57 __C_specific_handler
                          2F ?terminate@@YAXXZ
                         1E6 _lock
                         341 _unlock
                          7B __dllonexit
                         290 _onexit
                          4B _CxxThrowException
                         502 wcscmp
                         1E1 _local_unwind
                         492 memcpy
                         494 memmove
                         496 memset
                         4C2 strcmp

    ntdll.dll
             18003D998 Import Address Table
             180056420 Import Name Table
                     0 time date stamp
                     0 Index of first forwarder reference

                         1EB NtQueryObject
                         5D2 RtlSubAuthoritySid
                         1E0 NtQueryInformationToken
                         486 RtlInitializeSid
                         4D1 RtlLengthRequiredSid
                         4B2 RtlIsDosDeviceName_U
                         400 RtlGUIDFromString
                         470 RtlInitUnicodeString
                         5F8 RtlUnicodeStringToInteger
                         2D9 RtlAnsiStringToUnicodeString
                         463 RtlInitAnsiString
                          FD NtClose
                         248 NtSetInformationProcess
                          22 DbgPrint
                         435 RtlGetOwnerSecurityDescriptor
                         1F3 NtQuerySecurityObject
                         1A0 NtOpenFile
                         397 RtlDosPathNameToNtPathName_U
                         433 RtlGetNtSystemRoot
                         34B RtlCreateServiceSid
                         629 RtlVirtualUnwind
                         4EA RtlLookupFunctionEntry
                         2F3 RtlCaptureContext
                         3F6 RtlFreeHeap
                         2D3 RtlAllocateHeap
                         3BA RtlEqualSid
                         3FD RtlFreeUnicodeString
                         3F0 RtlFormatCurrentUserKeyPath
                         264 NtSetValueKey
                         11B NtCreateKey
                         1FE NtQueryValueKey
                         1A3 NtOpenKey
                         554 RtlReAllocateHeap
                         45C RtlImageNtHeader
                         4B8 RtlIsNameInExpression
                         1AD NtOpenProcessToken
                         4FF RtlNtStatusToDosError
                         1B6 NtOpenThreadToken

    api-ms-win-service-core-l1-1-1.dll
             18003D730 Import Address Table
             1800561B8 Import Name Table
                     0 time date stamp
                     0 Index of first forwarder reference

                           0 EnumDependentServicesW

    api-ms-win-service-winsvc-l1-1-0.dll
             18003D778 Import Address Table
             180056200 Import Name Table
                     0 time date stamp
                     0 Index of first forwarder reference

                           2 ControlService

    api-ms-win-service-management-l1-1-0.dll
             18003D740 Import Address Table
             1800561C8 Import Name Table
                     0 time date stamp
                     0 Index of first forwarder reference

                           4 OpenSCManagerW
                           3 DeleteService
                           0 CloseServiceHandle
                           5 OpenServiceW

    api-ms-win-service-management-l2-1-0.dll
             18003D768 Import Address Table
             1800561F0 Import Name Table
                     0 time date stamp
                     0 Index of first forwarder reference

                           6 QueryServiceStatusEx

    api-ms-win-eventing-provider-l1-1-0.dll
             18003D720 Import Address Table
             1800561A8 Import Name Table
                     0 time date stamp
                     0 Index of first forwarder reference

                           9 EventWriteTransfer

    SHLWAPI.dll
             18003D618 Import Address Table
             1800560A0 Import Name Table
                     0 time date stamp
                     0 Index of first forwarder reference

                          C7 SHGetValueW
                         108 SHStrDupW

    USER32.dll
             18003D640 Import Address Table
             1800560C8 Import Name Table
                     0 time date stamp
                     0 Index of first forwarder reference

                         359 SetPropW
                         247 IsWindow
                         159 GetGUIThreadInfo
                         2B0 PostQuitMessage
                         384 SetWindowsHookExAW
                         328 SetCursor
                         1F8 GetWindowThreadProcessId
                         35A SetRect
                          FD EnumDisplayDevicesW
                         1C7 GetSystemMetrics
                         2F3 RegisterSuspendResumeNotification
                         318 SendMessageW
                         258 LoadCursorW
                         1C1 GetShellWindow
                         3AD TranslateMessage
                         131 GetClassNameW
                         38D ShowWindow
                           8 AllowSetForegroundWindow
                         293 MsgWaitForMultipleObjects
                          BD DispatchMessageW
                         18B GetMonitorInfoW
                         2AB PeekMessageW

    ole32.dll
             18003DAD0 Import Address Table
             180056558 Import Name Table
                     0 time date stamp
                     0 Index of first forwarder reference

                          8C CoTaskMemFree
                          2B CoCreateInstance
                          54 CoGetObject
                         20C StringFromGUID2

    SHELL32.dll
             18003D5E0 Import Address Table
             180056068 Import Name Table
                     0 time date stamp
                     0 Index of first forwarder reference

                         150 SHGetFolderPathW
                         16E SHGetSpecialFolderPathW
                          8D SHChangeNotify
                             Ordinal   165
                          9D SHCreateDirectoryExW
                         14F SHGetFolderPathEx

    USERENV.dll
             18003D6F8 Import Address Table
             180056180 Import Name Table
                     0 time date stamp
                     0 Index of first forwarder reference

                          17 GetAllUsersProfileDirectoryW
                          26 GetUserProfileDirectoryW

    KERNEL32.dll
             18003D260 Import Address Table
             180055CE8 Import Name Table
                     0 time date stamp
                     0 Index of first forwarder reference

                         277 GetLongPathNameW
                         263 GetFullPathNameW
                         444 QueryActCtxSettingsW
                         2D7 GetShortPathNameW
                         64A lstrcmpiW
                          CE CreateFileW
                         4CF ResolveDelayLoadedAPI
                         111 DelayLoadFailureHook
                         4B8 ReleaseSRWLockExclusive
                           0 AcquireSRWLockExclusive
                         5F2 WakeAllConditionVariable
                         591 SleepConditionVariableSRW
                         4E8 SearchPathW
                         332 GetWindowsDirectoryW
                         21A GetCurrentDirectoryW
                         434 ProcessIdToSessionId
                          C2 CreateEventW
                         24F GetFileAttributesW
                         24A GetFileAttributesA
                         2EA GetSystemDirectoryW
                          9D CompareStringOrdinal
                         54C SetProcessAffinityMask
                         273 GetLogicalProcessorInformationEx
                         223 GetCurrentProcessorNumberEx
                         242 GetEnvironmentVariableA
                         4D3 ResumeThread
                          7D CheckElevationEnabled
                         5DF VirtualProtect
                         27D GetModuleFileNameW
                          F5 CreateThread
                          89 CloseHandle
                         40E OpenMutexW
                         221 GetCurrentProcessId
                          DD CreateMutexW
                         58F Sleep
                         452 QueryPerformanceCounter
                         225 GetCurrentThreadId
                         2F3 GetSystemTimeAsFileTime
                         311 GetTickCount
                         5C0 UnhandledExceptionFilter
                         57F SetUnhandledExceptionFilter
                         220 GetCurrentProcess
                         59E TerminateProcess
                         281 GetModuleHandleW
                         2B8 GetProcAddress
                         351 HeapAlloc
                         2BE GetProcessHeap
                         138 EnterCriticalSection
                         3C4 LeaveCriticalSection
                         35A HeapSize
                         35D HeapValidate
                         36B InitializeCriticalSectionAndSpinCount
                         5D9 VirtualAlloc
                         5DC VirtualFree
                         552 SetProcessInformation
                         167 ExitProcess
                         524 SetEnvironmentVariableW
                         243 GetEnvironmentVariableW
                         398 IsWow64Process
                         1DF GetCommandLineA
                          E3 CreateProcessA
                         5EA WaitForSingleObject
                         246 GetExitCodeProcess
                         26A GetLastError
                         3D6 LocalFree
                         541 SetLastError
                         27C GetModuleFileNameA
                         355 HeapFree
                         19F FindResourceW
                         58E SizeofResource
                         3CE LoadResource
                         3E2 LockResource
                         3F6 MultiByteToWideChar
                         523 SetEnvironmentVariableA
                         3CA LoadLibraryExW
                         1B4 FreeLibrary
                         3CB LoadLibraryW
                         1E0 GetCommandLineW
                         653 lstrlenW
                          B3 CreateActCtxW
                         446 QueryActCtxW
                         4B4 ReleaseActCtx
                         312 GetTickCount64
                         3EF MoveFileExW
                         114 DeleteCriticalSection
                         3D1 LocalAlloc
                          9C CompareStringEx
                         3B5 LCIDToLocaleName
                         26D GetLocaleInfoEx
                         3B7 LCMapStringEx
                         358 HeapReAlloc
                         611 WideCharToMultiByte
                         191 FindNLSStringEx
                         387 IsNLSDefinedString
                           8 AddDllDirectory
                         525 SetErrorMode
                         321 GetUserDefaultUILanguage
                         16B ExpandEnvironmentStringsW

    ADVAPI32.dll
             18003D1A0 Import Address Table
             180055C28 Import Name Table
                     0 time date stamp
                     0 Index of first forwarder reference

                         26A RegDeleteKeyExW
                         299 RegQueryValueExW
                         25B RegCloseKey
                         264 RegCreateKeyExW
                         293 RegQueryInfoKeyW
                         27D RegEnumValueW
                         2A9 RegSetValueExW
                         27A RegEnumKeyExW
                          83 ConvertStringSidToSidW
                         1A9 LookupAccountSidW
                         273 RegDeleteValueW
                         2A8 RegSetValueExA
                         215 OpenProcessToken
                         281 RegGetValueW
                         285 RegLoadKeyW
                         2AC RegUnLoadKeyW
                         1AF LookupPrivilegeValueW
                          1F AdjustTokenPrivileges
                         170 GetTokenInformation
                         2FB StartServiceW
                          93 CreateWellKnownSid
                         250 QueryServiceStatus
                         28C RegOpenKeyExW

    RPCRT4.dll
             18003D588 Import Address Table
             180056010 Import Name Table
                     0 time date stamp
                     0 Index of first forwarder reference

                         176 RpcBindingFromStringBindingW
                         210 RpcStringBindingComposeW
                          2E I_RpcExceptionFilter
                         16C RpcAsyncCompleteCall
                         16E RpcAsyncInitializeHandle
                         214 RpcStringFreeW
                         16B RpcAsyncCancelCall
                         174 RpcBindingFree
                          94 Ndr64AsyncClientCall
                         185 RpcBindingSetAuthInfoExW

    MPR.dll
             18003D578 Import Address Table
             180056000 Import Name Table
                     0 time date stamp
                     0 Index of first forwarder reference

                          2D WNetGetConnectionW

    SspiCli.dll
             18003D630 Import Address Table
             1800560B8 Import Name Table
                     0 time date stamp
                     0 Index of first forwarder reference

                          19 GetUserNameExW

    api-ms-win-core-apiquery-l1-1-0.dll
             18003D710 Import Address Table
             180056198 Import Name Table
                     0 time date stamp
                     0 Index of first forwarder reference

                           0 ApiSetQueryApiSetPresence

  Section contains the following delay load imports:

    ext-ms-win-ntuser-windowstation-l1-1-0.dll
              00000001 Characteristics
      0000000180058D50 Address of HMODULE
      000000018005D000 Import Address Table
      0000000180055970 Import Name Table
      0000000180055A00 Bound Import Name Table
      0000000000000000 Unload Import Name Table
                     0 time date stamp

                                    0000000180002E4A     6 GetThreadDesktop
                                    0000000180002E38     7 GetUserObjectInformationW
                                    0000000180002D56     5 GetProcessWindowStation

    pcacli.dll
              00000001 Characteristics
      0000000180058D68 Address of HMODULE
      000000018005D020 Import Address Table
      0000000180055990 Import Name Table
      0000000180055A20 Bound Import Name Table
      0000000000000000 Unload Import Name Table
                     0 time date stamp

                                    0000000180002E5C     3 PcaMonitorProcess

  Summary

        2000 .data
        1000 .didat
        3000 .pdata
       1C000 .rdata
        1000 .reloc
        2000 .rsrc
       3B000 .text
