Microsoft (R) COFF/PE Dumper Version 14.29.30137.0
Copyright (C) Microsoft Corporation.  All rights reserved.


Dump of file C:\Windows\WinSxS\amd64_microsoft-windows-n..-domain-clients-svc_31bf3856ad364e35_10.0.19041.1682_none_b8ab675ba154d083\FwRemoteSvr.dll

File Type: DLL

  Image has the following dependencies:

    fwbase.dll
    msvcrt.dll
    api-ms-win-eventing-classicprovider-l1-1-0.dll
    api-ms-win-core-errorhandling-l1-1-0.dll
    api-ms-win-core-heap-l2-1-0.dll
    RPCRT4.dll
    api-ms-win-core-processthreads-l1-1-0.dll
    api-ms-win-security-base-l1-1-0.dll
    api-ms-win-core-synch-l1-2-0.dll
    api-ms-win-core-profile-l1-1-0.dll
    api-ms-win-core-sysinfo-l1-1-0.dll
    api-ms-win-core-rtlsupport-l1-1-0.dll
    FirewallAPI.dll
    api-ms-win-core-delayload-l1-1-1.dll
    api-ms-win-core-delayload-l1-1-0.dll

  Image has the following delay load dependencies:

    api-ms-win-security-sddl-l1-1-0.dll

  Section contains the following exports for FwRemoteSvr.DLL

    00000000 characteristics
    E1BE30E4 time date stamp
        0.00 version
           1 ordinal base
           2 number of functions
           2 number of names

    ordinal hint RVA      name

          1    0 00001060 FwRpcAPIsInitialize
          2    1 000011F0 FwRpcAPIsShutdown

  Section contains the following imports:

    fwbase.dll
             180012E88 Import Address Table
             180017D68 Import Name Table
                     0 time date stamp
                     0 Index of first forwarder reference

                           4 FwAlloc
                          2A FwFree
                          88 FwSizeTMultiply
                          90 FwStringCopy
                          1C FwCloseHandle
                          3F FwHResultToWindowsError

    msvcrt.dll
             180012EC0 Import Address Table
             180017DA0 Import Name Table
                     0 time date stamp
                     0 Index of first forwarder reference

                          AE _amsg_exit
                          55 _XcptFilter
                         44C free
                         486 malloc
                          57 __C_specific_handler
                         17D _initterm

    api-ms-win-eventing-classicprovider-l1-1-0.dll
             180012E68 Import Address Table
             180017D48 Import Name Table
                     0 time date stamp
                     0 Index of first forwarder reference

                           5 TraceMessage

    api-ms-win-core-errorhandling-l1-1-0.dll
             180012DA8 Import Address Table
             180017C88 Import Name Table
                     0 time date stamp
                     0 Index of first forwarder reference

                           F SetUnhandledExceptionFilter
                          11 UnhandledExceptionFilter
                           5 GetLastError

    api-ms-win-core-heap-l2-1-0.dll
             180012DC8 Import Address Table
             180017CA8 Import Name Table
                     0 time date stamp
                     0 Index of first forwarder reference

                           A LocalFree

    RPCRT4.dll
             180012CF0 Import Address Table
             180017BD0 Import Name Table
                     0 time date stamp
                     0 Index of first forwarder reference

                         212 RpcStringBindingParseW
                         18A RpcBindingToStringBindingW
                          25 I_RpcBindingIsClientLocal
                         1E5 RpcServerUnregisterIfEx
                         18C RpcBindingVectorFree
                         197 RpcEpUnregister
                         1CE RpcServerInqBindings
                         1E0 RpcServerRegisterIf3
                         1F6 RpcServerUseProtseqW
                         214 RpcStringFreeW
                         1DD RpcServerRegisterAuthInfoW
                         1D3 RpcServerInqDefaultPrincNameW
                         132 NdrServerCallAll
                         131 NdrServerCall2
                         1CA RpcRevertToSelf
                         1A6 RpcImpersonateClient
                         17A RpcBindingInqAuthClientW
                         195 RpcEpRegisterW

    api-ms-win-core-processthreads-l1-1-0.dll
             180012DD8 Import Address Table
             180017CB8 Import Name Table
                     0 time date stamp
                     0 Index of first forwarder reference

                          4F TerminateProcess
                           C GetCurrentProcess
                           D GetCurrentProcessId
                           3 OpenThreadToken
                          11 GetCurrentThreadId
                          10 GetCurrentThread

    api-ms-win-security-base-l1-1-0.dll
             180012E78 Import Address Table
             180017D58 Import Name Table
                     0 time date stamp
                     0 Index of first forwarder reference

                           0 AccessCheck

    api-ms-win-core-synch-l1-2-0.dll
             180012E40 Import Address Table
             180017D20 Import Name Table
                     0 time date stamp
                     0 Index of first forwarder reference

                          2D Sleep

    api-ms-win-core-profile-l1-1-0.dll
             180012E10 Import Address Table
             180017CF0 Import Name Table
                     0 time date stamp
                     0 Index of first forwarder reference

                           0 QueryPerformanceCounter

    api-ms-win-core-sysinfo-l1-1-0.dll
             180012E50 Import Address Table
             180017D30 Import Name Table
                     0 time date stamp
                     0 Index of first forwarder reference

                          1A GetTickCount
                          16 GetSystemTimeAsFileTime

    api-ms-win-core-rtlsupport-l1-1-0.dll
             180012E20 Import Address Table
             180017D00 Import Name Table
                     0 time date stamp
                     0 Index of first forwarder reference

                         629 RtlVirtualUnwind
                         2F3 RtlCaptureContext
                         4EA RtlLookupFunctionEntry

    FirewallAPI.dll
             180012B78 Import Address Table
             180017A58 Import Name Table
                     0 time date stamp
                     0 Index of first forwarder reference

                          65 FWRestoreDefaults
                          2F FWEnumFirewallRules
                           9 FWAddFirewallRule
                          26 FWEnumAdapters
                          31 FWEnumNetworks
                          5E FWQueryCryptoSets
                          5C FWQueryAuthenticationSets
                          61 FWQueryMainModeRules
                          5D FWQueryConnectionSecurityRules
                          5F FWQueryFirewallRules
                          30 FWEnumMainModeRules
                          1A FWDeleteAllMainModeRules
                          21 FWDeleteMainModeRule
                          71 FWSetMainModeRule
                           B FWAddMainModeRule
                          23 FWDeletePhase2SAs
                          22 FWDeletePhase1SAs
                          33 FWEnumPhase2SAs
                          32 FWEnumPhase1SAs
                          29 FWEnumCryptoSets
                          18 FWDeleteAllCryptoSets
                          6D FWSetFirewallRule
                          4E FWGetConfig
                          4F FWGetConfig2
                          20 FWDeleteFirewallRule
                          1D FWDeleteCryptoSet
                          6A FWSetConfig
                          34 FWEnumProducts
                          50 FWGetGlobalConfig
                          51 FWGetGlobalConfig2
                          6F FWSetGlobalConfig
                          5B FWOpenPolicyStore
                          19 FWDeleteAllFirewallRules
                          10 FWClosePolicyStore
                           5 FWAddConnectionSecurityRule
                          6B FWSetConnectionSecurityRule
                          1C FWDeleteConnectionSecurityRule
                          17 FWDeleteAllConnectionSecurityRules
                          28 FWEnumConnectionSecurityRules
                           4 FWAddAuthenticationSet
                          6C FWSetCryptoSet
                           6 FWAddCryptoSet
                          27 FWEnumAuthenticationSets
                          16 FWDeleteAllAuthenticationSets
                          69 FWSetAuthenticationSet
                          1B FWDeleteAuthenticationSet

    api-ms-win-core-delayload-l1-1-1.dll
             180012D98 Import Address Table
             180017C78 Import Name Table
                     0 time date stamp
                     0 Index of first forwarder reference

                           1 ResolveDelayLoadedAPI

    api-ms-win-core-delayload-l1-1-0.dll
             180012D88 Import Address Table
             180017C68 Import Name Table
                     0 time date stamp
                     0 Index of first forwarder reference

                           0 DelayLoadFailureHook

  Section contains the following delay load imports:

    api-ms-win-security-sddl-l1-1-0.dll
              00000001 Characteristics
      0000000180019600 Address of HMODULE
      000000018001B000 Import Address Table
      0000000180017848 Import Name Table
      0000000180017890 Bound Import Name Table
      0000000000000000 Unload Import Name Table
                     0 time date stamp

                                    000000018000A156     2 ConvertStringSecurityDescriptorToSecurityDescriptorW

  Summary

        1000 .data
        1000 .didat
        1000 .pdata
        E000 .rdata
        1000 .reloc
        1000 .rsrc
        A000 .text
