Microsoft (R) COFF/PE Dumper Version 14.29.30137.0
Copyright (C) Microsoft Corporation.  All rights reserved.


Dump of file C:\Windows\WinSxS\amd64_windows-defender-drivers-backup_31bf3856ad364e35_10.0.19041.1_none_e41c034fde6b6f5e\WdBoot.sys

File Type: EXECUTABLE IMAGE

  Image has the following dependencies:

    ntoskrnl.exe
    cng.sys

  Section contains the following imports:

    ntoskrnl.exe
             1C0006058 Import Address Table
             1C0006208 Import Name Table
                     0 time date stamp
                     0 Index of first forwarder reference

                         A8C ZwQueryValueKey
                          C4 ExFreePoolWithTag
                         3A1 IoWMIRegistrationControl
                         25F InitSafeBootMode
                         260 InitializeSListHead
                          51 CmRegisterCallback
                         A00 ZwClose
                         A4E ZwOpenKey
                          9D ExAllocatePoolWithTag
                         155 ExpInterlockedPushEntrySList
                          4B CmCallbackGetKeyObjectID
                         B25 memcpy_s
                         735 RtlAnsiStringToUnicodeString
                         A20 ZwDeleteValueKey
                         805 RtlInitAnsiString
                         AC3 ZwSetValueKey
                         757 RtlCompareMemory
                         6C6 PsGetVersion
                         51D MmGetSystemRoutineAddress
                          EC ExNotifyCallback
                         B60 wcsstr
                         76C RtlCopyUnicodeString
                         80C RtlInitUnicodeString
                          AA ExCreateCallback
                         605 ObfDereferenceObject
                          54 CmUnRegisterCallback
                         8EE RtlUpcaseUnicodeChar
                         153 ExpInterlockedFlushSList
                         7A3 RtlEqualUnicodeString
                         AD9 __C_specific_handler
                         A89 ZwQuerySystemInformation
                          9C ExAllocatePoolWithQuotaTag

    cng.sys
             1C0006000 Import Address Table
             1C00061B0 Import Name Table
                     0 time date stamp
                     0 Index of first forwarder reference

                           2 BCryptCreateHash
                          1A BCryptHashData
                          1C BCryptImportKeyPair
                           8 BCryptDestroyHash
                           1 BCryptCloseAlgorithmProvider
                          12 BCryptFinishHash
                          1E BCryptOpenAlgorithmProvider
                          28 BCryptVerifySignature
                          18 BCryptGetProperty
                           9 BCryptDestroyKey

  Summary

        1000 .data
        1000 .idata
        1000 .pdata
        1000 .rdata
        1000 .reloc
        1000 .rsrc
        2000 .text
        1000 GFIDS
        2000 INIT
        4000 PAGE
