Microsoft (R) COFF/PE Dumper Version 14.29.30137.0
Copyright (C) Microsoft Corporation.  All rights reserved.


Dump of file C:\Windows\SysWOW64\cipher.exe

File Type: EXECUTABLE IMAGE

  Image has the following delay load dependencies:

    SHELL32.dll
    edputil.dll

  Section contains the following delay load imports:

    SHELL32.dll
              00000001 Characteristics
              0040836C Address of HMODULE
              0040D000 Import Address Table
              00407EE4 Import Name Table
              00407F3C Bound Import Name Table
              00000000 Unload Import Name Table
                     0 time date stamp

          00407C52                 Ordinal   190
          00407C48              90 SHChangeNotifySuspendResume
          00407C2D                 Ordinal   155

    edputil.dll
              00000001 Characteristics
              00408370 Address of HMODULE
              0040D010 Import Address Table
              00407EF4 Import Name Table
              00407F4C Bound Import Name Table
              00000000 Unload Import Name Table
                     0 time date stamp

          00407C5C               8 EdpConvertProtectorToExternalId

  Image has the following dependencies:

    ADVAPI32.dll
    KERNEL32.dll
    msvcrt.dll
    ntdll.dll
    RPCRT4.dll
    USER32.dll
    NTDSAPI.dll
    CRYPT32.dll
    bcrypt.dll
    EFSUTIL.dll
    FeClient.dll
    DSROLE.dll

  Section contains the following imports:

    ADVAPI32.dll
                40B000 Import Address Table
                40B38C Import Name Table
                     0 time date stamp
                     0 Index of first forwarder reference

                  10B EncryptFileW
                   DC CryptReleaseContext
                  299 RegQueryValueExW
                  1A9 LookupAccountSidW
                  2BE RemoveUsersFromEncryptedFile
                  28C RegOpenKeyExW
                  257 QueryUsersOnEncryptedFile
                   1C AddUsersToEncryptedFile
                   1D AddUsersToEncryptedFileEx
                   83 ConvertStringSidToSidW
                  246 QueryRecoveryAgentsOnEncryptedFile
                  10C EncryptedFileKeyInfo
                  12D FlushEfsCache
                  132 FreeEncryptionCertificateHashList
                  11A EqualSid
                   C2 CryptAcquireContextW
                  25B RegCloseKey
                  2F6 SetUserFileEncryptionKey
                  130 FreeEncryptedFileKeyInfo
                   EA DecryptFileW
                   D8 CryptGetUserKey
                   C8 CryptDestroyKey

    KERNEL32.dll
                40B0BC Import Address Table
                40B448 Import Name Table
                     0 time date stamp
                     0 Index of first forwarder reference

                  22B GetDiskFreeSpaceW
                  4FA SetConsoleMode
                  11F DeviceIoControl
                  5C8 VirtualAlloc
                  4BA RemoveDirectoryW
                  516 SetErrorMode
                  523 SetFilePointer
                  511 SetEndOfFile
                  2B6 GetProcessHeap
                  324 GetVolumePathNameW
                   CD CreateFileW
                  247 GetFileAttributesW
                  322 GetVolumeNameForVolumeMountPointW
                  22A GetDiskFreeSpaceExW
                  471 ReadConsoleW
                   88 CloseHandle
                  34F HeapSetInformation
                  213 GetCurrentDirectoryW
                  50A SetCurrentDirectoryW
                  182 FindFirstFileW
                  1E1 GetComputerNameW
                  25B GetFullPathNameW
                  5C7 VerifyVersionInfoW
                  2F6 GetTempFileNameW
                  193 FindNextVolumeW
                  632 lstrcmpW
                  231 GetDriveTypeW
                  1A1 FlushFileBuffers
                  4CA ResolveDelayLoadedAPI
                  309 GetTickCount
                  2EB GetSystemTimeAsFileTime
                  21E GetCurrentThreadId
                  21A GetCurrentProcessId
                  10F DelayLoadFailureHook
                  44E QueryPerformanceCounter
                  58E TerminateProcess
                  219 GetCurrentProcess
                  56F SetUnhandledExceptionFilter
                  5AF UnhandledExceptionFilter
                  57F Sleep
                  320 GetVolumeInformationW
                  446 QueryDosDeviceW
                   BC CreateDirectoryW
                  18E FindNextFileW
                  5CB VirtualFree
                  533 SetLastError
                  19A FindVolumeClose
                  188 FindFirstVolumeW
                  250 GetFileType
                  600 WideCharToMultiByte
                  5C3 VerSetConditionMask
                  27A GetModuleHandleW
                  3D2 LocalFree
                  2B0 GetProcAddress
                  613 WriteConsoleW
                  347 HeapAlloc
                  263 GetLastError
                  1A9 FormatMessageW
                  1FE GetConsoleMode
                  614 WriteFile
                  2D4 GetStdHandle
                  63E lstrlenW
                  34B HeapFree
                  177 FindClose

    msvcrt.dll
                40B20C Import Address Table
                40B598 Import Name Table
                     0 time date stamp
                     0 Index of first forwarder reference

                  509 memcpy
                  16A _except_handler4_common
                  137 _controlfp
                   35 ?terminate@@YAXXZ
                  1E8 _initterm
                   E4 __setusermatherr
                   CE __p__fmode
                  124 _cexit
                  173 _exit
                  4AE exit
                   E2 __set_app_type
                   F1 __wgetmainargs
                  111 _amsg_exit
                   C9 __p__commode
                   6F _XcptFilter
                  55B towupper
                  417 _wcsnicmp
                  320 _putws
                  4D4 getchar
                  512 printf
                  570 wcschr
                  40D _wcsicmp
                  1BD _get_osfhandle
                  3EC _vsnwprintf
                   A3 __iob_func
                  4B9 fgetws
                  50D memset

    ntdll.dll
                40B27C Import Address Table
                40B608 Import Name Table
                     0 time date stamp
                     0 Index of first forwarder reference

                  4EC RtlNtStatusToDosError

    RPCRT4.dll
                40B1D4 Import Address Table
                40B560 Import Name Table
                     0 time date stamp
                     0 Index of first forwarder reference

                  20F RpcStringFreeW
                  218 UuidCreate
                  221 UuidToStringW

    USER32.dll
                40B1E4 Import Address Table
                40B570 Import Name Table
                     0 time date stamp
                     0 Index of first forwarder reference

                  288 MessageBoxW

    NTDSAPI.dll
                40B1C0 Import Address Table
                40B54C Import Name Table
                     0 time date stamp
                     0 Index of first forwarder reference

                    8 DsBindW
                   74 DsUnBindW
                   24 DsFreeNameResultW
                   14 DsCrackNamesW

    CRYPT32.dll
                40B05C Import Address Table
                40B3E8 Import Name Table
                     0 time date stamp
                     0 Index of first forwarder reference

                   47 CertGetEnhancedKeyUsage
                   40 CertFreeCertificateContext
                    4 CertAddCertificateContextToStore
                   2C CertEnumCertificatesInStore
                   C8 CryptQueryObject
                   12 CertCloseStore
                  129 PFXExportCertStoreEx
                   35 CertFindCertificateInStore
                   59 CertOpenStore
                   E4 CryptStringToBinaryW
                   46 CertGetCertificateContextProperty
                   7F CryptBinaryToStringW

    bcrypt.dll
                40B1EC Import Address Table
                40B578 Import Name Table
                     0 time date stamp
                     0 Index of first forwarder reference

                   1F BCryptGenerateSymmetricKey
                    2 BCryptCloseAlgorithmProvider
                   1D BCryptGenRandom
                   27 BCryptOpenAlgorithmProvider
                   21 BCryptGetProperty
                    E BCryptDestroyKey
                   12 BCryptEncrypt

    EFSUTIL.dll
                40B09C Import Address Table
                40B428 Import Name Table
                     0 time date stamp
                     0 Index of first forwarder reference

                    C EfsUtilGetSmartcardProviderName
                    2 EfsUtilCreateSelfSignedCertificate
                    9 EfsUtilGetCurrentUserInformation

    FeClient.dll
                40B0AC Import Address Table
                40B438 Import Name Table
                     0 time date stamp
                     0 Index of first forwarder reference

                   28 EfsClientQueryProtectors
                   24 EfsClientFreeProtectorList
                   25 EfsClientGetEncryptedFileVersion

    DSROLE.dll
                40B090 Import Address Table
                40B41C Import Name Table
                     0 time date stamp
                     0 Index of first forwarder reference

                    1 DsRoleGetPrimaryDomainInformation
                    0 DsRoleFreeMemory

  Summary

        3000 .data
        1000 .didat
        2000 .idata
        1000 .reloc
        1000 .rsrc
        7000 .text
