Microsoft (R) COFF/PE Dumper Version 14.29.30137.0
Copyright (C) Microsoft Corporation.  All rights reserved.


Dump of file C:\Windows\SysWOW64\FwRemoteSvr.dll

File Type: DLL

  Image has the following delay load dependencies:

    api-ms-win-security-sddl-l1-1-0.dll

  Section contains the following exports for FwRemoteSvr.DLL

    00000000 characteristics
    10828468 time date stamp
        0.00 version
           1 ordinal base
           2 number of functions
           2 number of names

    ordinal hint RVA      name

          1    0 00005050 FwRpcAPIsInitialize
          2    1 00005160 FwRpcAPIsShutdown

  Section contains the following delay load imports:

    api-ms-win-security-sddl-l1-1-0.dll
              00000001 Characteristics
              1000D364 Address of HMODULE
              1000F000 Import Address Table
              1000C63C Import Name Table
              1000C67C Bound Import Name Table
              00000000 Unload Import Name Table
                     0 time date stamp

          1000C531               2 ConvertStringSecurityDescriptorToSecurityDescriptorW

  Image has the following dependencies:

    fwbase.dll
    msvcrt.dll
    api-ms-win-eventing-classicprovider-l1-1-0.dll
    api-ms-win-core-errorhandling-l1-1-0.dll
    api-ms-win-core-heap-l2-1-0.dll
    RPCRT4.dll
    api-ms-win-core-processthreads-l1-1-0.dll
    api-ms-win-security-base-l1-1-0.dll
    api-ms-win-core-synch-l1-2-0.dll
    api-ms-win-core-profile-l1-1-0.dll
    api-ms-win-core-sysinfo-l1-1-0.dll
    FirewallAPI.dll
    api-ms-win-core-delayload-l1-1-1.dll
    api-ms-win-core-delayload-l1-1-0.dll

  Section contains the following imports:

    fwbase.dll
              1000E174 Import Address Table
              1000E454 Import Name Table
                     0 time date stamp
                     0 Index of first forwarder reference

                   1C FwCloseHandle
                   90 FwStringCopy
                   88 FwSizeTMultiply
                   2A FwFree
                    4 FwAlloc
                   3F FwHResultToWindowsError

    msvcrt.dll
              1000E190 Import Address Table
              1000E470 Import Name Table
                     0 time date stamp
                     0 Index of first forwarder reference

                  16A _except_handler4_common
                   6F _XcptFilter
                  50D memset
                  1E8 _initterm
                  4FD malloc
                  4C5 free
                  111 _amsg_exit

    api-ms-win-eventing-classicprovider-l1-1-0.dll
              1000E164 Import Address Table
              1000E444 Import Name Table
                     0 time date stamp
                     0 Index of first forwarder reference

                    5 TraceMessage

    api-ms-win-core-errorhandling-l1-1-0.dll
              1000E114 Import Address Table
              1000E3F4 Import Name Table
                     0 time date stamp
                     0 Index of first forwarder reference

                   11 UnhandledExceptionFilter
                    5 GetLastError
                    F SetUnhandledExceptionFilter

    api-ms-win-core-heap-l2-1-0.dll
              1000E124 Import Address Table
              1000E404 Import Name Table
                     0 time date stamp
                     0 Index of first forwarder reference

                    A LocalFree

    RPCRT4.dll
              1000E0BC Import Address Table
              1000E39C Import Name Table
                     0 time date stamp
                     0 Index of first forwarder reference

                  1A1 RpcImpersonateClient
                  1C5 RpcRevertToSelf
                  12D NdrServerCall2
                  1CE RpcServerInqDefaultPrincNameW
                  1D8 RpcServerRegisterAuthInfoW
                  20F RpcStringFreeW
                  1F1 RpcServerUseProtseqW
                  1DB RpcServerRegisterIf3
                  1C9 RpcServerInqBindings
                  175 RpcBindingInqAuthClientW
                  20D RpcStringBindingParseW
                  185 RpcBindingToStringBindingW
                   25 I_RpcBindingIsClientLocal
                  1E0 RpcServerUnregisterIfEx
                  187 RpcBindingVectorFree
                  192 RpcEpUnregister
                  190 RpcEpRegisterW

    api-ms-win-core-processthreads-l1-1-0.dll
              1000E12C Import Address Table
              1000E40C Import Name Table
                     0 time date stamp
                     0 Index of first forwarder reference

                    C GetCurrentProcess
                   4F TerminateProcess
                    3 OpenThreadToken
                   10 GetCurrentThread
                   11 GetCurrentThreadId
                    D GetCurrentProcessId

    api-ms-win-security-base-l1-1-0.dll
              1000E16C Import Address Table
              1000E44C Import Name Table
                     0 time date stamp
                     0 Index of first forwarder reference

                    0 AccessCheck

    api-ms-win-core-synch-l1-2-0.dll
              1000E150 Import Address Table
              1000E430 Import Name Table
                     0 time date stamp
                     0 Index of first forwarder reference

                   2D Sleep

    api-ms-win-core-profile-l1-1-0.dll
              1000E148 Import Address Table
              1000E428 Import Name Table
                     0 time date stamp
                     0 Index of first forwarder reference

                    0 QueryPerformanceCounter

    api-ms-win-core-sysinfo-l1-1-0.dll
              1000E158 Import Address Table
              1000E438 Import Name Table
                     0 time date stamp
                     0 Index of first forwarder reference

                   1A GetTickCount
                   16 GetSystemTimeAsFileTime

    FirewallAPI.dll
              1000E000 Import Address Table
              1000E2E0 Import Name Table
                     0 time date stamp
                     0 Index of first forwarder reference

                   1A FWDeleteAllMainModeRules
                   21 FWDeleteMainModeRule
                   71 FWSetMainModeRule
                    B FWAddMainModeRule
                   23 FWDeletePhase2SAs
                   22 FWDeletePhase1SAs
                   17 FWDeleteAllConnectionSecurityRules
                   1C FWDeleteConnectionSecurityRule
                   6B FWSetConnectionSecurityRule
                    5 FWAddConnectionSecurityRule
                   10 FWClosePolicyStore
                   5B FWOpenPolicyStore
                   26 FWEnumAdapters
                   31 FWEnumNetworks
                   5E FWQueryCryptoSets
                   5C FWQueryAuthenticationSets
                   61 FWQueryMainModeRules
                   5D FWQueryConnectionSecurityRules
                   33 FWEnumPhase2SAs
                   6F FWSetGlobalConfig
                   51 FWGetGlobalConfig2
                   50 FWGetGlobalConfig
                   34 FWEnumProducts
                   6A FWSetConfig
                   5F FWQueryFirewallRules
                   4F FWGetConfig2
                   4E FWGetConfig
                   6D FWSetFirewallRule
                    9 FWAddFirewallRule
                   19 FWDeleteAllFirewallRules
                   20 FWDeleteFirewallRule
                   2F FWEnumFirewallRules
                   65 FWRestoreDefaults
                    4 FWAddAuthenticationSet
                   1B FWDeleteAuthenticationSet
                   69 FWSetAuthenticationSet
                   16 FWDeleteAllAuthenticationSets
                   27 FWEnumAuthenticationSets
                   30 FWEnumMainModeRules
                    6 FWAddCryptoSet
                   6C FWSetCryptoSet
                   32 FWEnumPhase1SAs
                   29 FWEnumCryptoSets
                   18 FWDeleteAllCryptoSets
                   1D FWDeleteCryptoSet
                   28 FWEnumConnectionSecurityRules

    api-ms-win-core-delayload-l1-1-1.dll
              1000E10C Import Address Table
              1000E3EC Import Name Table
                     0 time date stamp
                     0 Index of first forwarder reference

                    1 ResolveDelayLoadedAPI

    api-ms-win-core-delayload-l1-1-0.dll
              1000E104 Import Address Table
              1000E3E4 Import Name Table
                     0 time date stamp
                     0 Index of first forwarder reference

                    0 DelayLoadFailureHook

  Summary

        1000 .data
        1000 .didat
        1000 .idata
        1000 .reloc
        1000 .rsrc
        C000 .text
