Microsoft (R) COFF/PE Dumper Version 14.29.30137.0
Copyright (C) Microsoft Corporation.  All rights reserved.


Dump of file C:\Windows\SysWOW64\gpscript.exe

File Type: EXECUTABLE IMAGE

  Image has the following dependencies:

    api-ms-win-core-file-l1-1-0.dll
    api-ms-win-core-registry-l1-1-0.dll
    api-ms-win-core-errorhandling-l1-1-0.dll
    api-ms-win-core-processthreads-l1-1-0.dll
    api-ms-win-core-processenvironment-l1-1-0.dll
    api-ms-win-core-synch-l1-1-0.dll
    api-ms-win-core-heap-l2-1-0.dll
    api-ms-win-core-sysinfo-l1-1-0.dll
    api-ms-win-core-handle-l1-1-0.dll
    api-ms-win-core-libraryloader-l1-2-0.dll
    api-ms-win-core-string-l1-1-0.dll
    api-ms-win-core-heap-l1-1-0.dll
    USER32.dll
    msvcrt.dll
    ntdll.dll
    api-ms-win-core-debug-l1-1-0.dll
    api-ms-win-security-base-l1-1-0.dll
    api-ms-win-security-sddl-l1-1-0.dll
    api-ms-win-core-synch-l1-2-0.dll
    api-ms-win-core-profile-l1-1-0.dll

  Section contains the following imports:

    api-ms-win-core-file-l1-1-0.dll
                40A028 Import Address Table
                40A3A8 Import Name Table
                     0 time date stamp
                     0 Index of first forwarder reference

                   55 SetFilePointer
                    6 CreateFileW
                   2B GetFileAttributesExW
                    1 CompareFileTime
                    3 CreateDirectoryW
                   5B WriteFile

    api-ms-win-core-registry-l1-1-0.dll
                40A0C4 Import Address Table
                40A444 Import Name Table
                     0 time date stamp
                     0 Index of first forwarder reference

                   1E RegOpenKeyExW
                   2E RegSetValueExW
                    0 RegCloseKey
                   21 RegQueryInfoKeyW
                   25 RegQueryValueExW
                   1C RegOpenCurrentUser

    api-ms-win-core-errorhandling-l1-1-0.dll
                40A014 Import Address Table
                40A394 Import Name Table
                     0 time date stamp
                     0 Index of first forwarder reference

                   11 UnhandledExceptionFilter
                    D SetLastError
                    F SetUnhandledExceptionFilter
                    5 GetLastError

    api-ms-win-core-processthreads-l1-1-0.dll
                40A08C Import Address Table
                40A40C Import Name Table
                     0 time date stamp
                     0 Index of first forwarder reference

                   4E TerminateProcess
                    3 CreateProcessW
                   11 GetCurrentThreadId
                    D GetCurrentProcessId
                   31 OpenProcessToken
                   20 GetStartupInfoW
                    C GetCurrentProcess
                   10 GetCurrentThread
                   4B SetThreadToken
                   13 GetExitCodeProcess
                   33 OpenThreadToken

    api-ms-win-core-processenvironment-l1-1-0.dll
                40A078 Import Address Table
                40A3F8 Import Name Table
                     0 time date stamp
                     0 Index of first forwarder reference

                   12 SetCurrentDirectoryW
                    B GetEnvironmentVariableW
                   15 SetEnvironmentVariableW
                    1 ExpandEnvironmentStringsW

    api-ms-win-core-synch-l1-1-0.dll
                40A0E8 Import Address Table
                40A468 Import Name Table
                     0 time date stamp
                     0 Index of first forwarder reference

                   36 WaitForSingleObject
                   1A InitializeCriticalSectionEx
                    F DeleteCriticalSection

    api-ms-win-core-heap-l2-1-0.dll
                40A058 Import Address Table
                40A3D8 Import Name Table
                     0 time date stamp
                     0 Index of first forwarder reference

                    3 LocalFree
                    2 LocalAlloc

    api-ms-win-core-sysinfo-l1-1-0.dll
                40A100 Import Address Table
                40A480 Import Name Table
                     0 time date stamp
                     0 Index of first forwarder reference

                   13 GetSystemTime
                   16 GetSystemTimeAsFileTime
                    F GetSystemDirectoryW
                   1A GetTickCount
                    5 GetLocalTime

    api-ms-win-core-handle-l1-1-0.dll
                40A044 Import Address Table
                40A3C4 Import Name Table
                     0 time date stamp
                     0 Index of first forwarder reference

                    2 DuplicateHandle
                    0 CloseHandle

    api-ms-win-core-libraryloader-l1-2-0.dll
                40A064 Import Address Table
                40A3E4 Import Name Table
                     0 time date stamp
                     0 Index of first forwarder reference

                   15 GetProcAddress
                   18 LoadLibraryExW
                   14 GetModuleHandleW
                    C FreeLibrary

    api-ms-win-core-string-l1-1-0.dll
                40A0E0 Import Address Table
                40A460 Import Name Table
                     0 time date stamp
                     0 Index of first forwarder reference

                    2 CompareStringW

    api-ms-win-core-heap-l1-1-0.dll
                40A050 Import Address Table
                40A3D0 Import Name Table
                     0 time date stamp
                     0 Index of first forwarder reference

                    A HeapSetInformation

    USER32.dll
                40A000 Import Address Table
                40A380 Import Name Table
                     0 time date stamp
                     0 Index of first forwarder reference

                  1C5 GetSystemMetrics
                  3BE UpdatePerUserSystemParameters

    msvcrt.dll
                40A130 Import Address Table
                40A4B0 Import Name Table
                     0 time date stamp
                     0 Index of first forwarder reference

                  111 _amsg_exit
                  173 _exit
                  124 _cexit
                   C9 __p__commode
                   6F _XcptFilter
                   CE __p__fmode
                   E4 __setusermatherr
                  1E8 _initterm
                  405 _wcmdln
                   93 __argc
                   9D __dllonexit
                  4AE exit
                  309 _onexit
                   11 ??1type_info@@UAE@XZ
                  3EC _vsnwprintf
                  137 _controlfp
                  16A _except_handler4_common
                  3C4 _unlock
                  260 _lock
                  50B memmove
                  509 memcpy
                   64 _CxxThrowException
                   37 ?what@exception@@UBEPBDXZ
                   F1 __wgetmainargs
                   10 ??1exception@@UAE@XZ
                    B ??0exception@@QAE@ABV0@@Z
                    A ??0exception@@QAE@ABQBDH@Z
                  50D memset
                   E2 __set_app_type
                    9 ??0exception@@QAE@ABQBD@Z
                  246 _itow
                  122 _callnewh
                  4FD malloc
                  31A _purecall
                   13 ??3@YAXPAX@Z
                   79 __CxxFrameHandler3
                   ED __wargv
                   35 ?terminate@@YAXXZ

    ntdll.dll
                40A1CC Import Address Table
                40A54C Import Name Table
                     0 time date stamp
                     0 Index of first forwarder reference

                  32F RtlCopySid
                  4C3 RtlLengthSid

    api-ms-win-core-debug-l1-1-0.dll
                40A00C Import Address Table
                40A38C Import Name Table
                     0 time date stamp
                     0 Index of first forwarder reference

                    7 OutputDebugStringW

    api-ms-win-security-base-l1-1-0.dll
                40A118 Import Address Table
                40A498 Import Name Table
                     0 time date stamp
                     0 Index of first forwarder reference

                   42 GetTokenInformation
                   45 ImpersonateLoggedOnUser
                   2C EqualSid

    api-ms-win-security-sddl-l1-1-0.dll
                40A128 Import Address Table
                40A4A8 Import Name Table
                     0 time date stamp
                     0 Index of first forwarder reference

                    1 ConvertSidToStringSidW

    api-ms-win-core-synch-l1-2-0.dll
                40A0F8 Import Address Table
                40A478 Import Name Table
                     0 time date stamp
                     0 Index of first forwarder reference

                   2D Sleep

    api-ms-win-core-profile-l1-1-0.dll
                40A0BC Import Address Table
                40A43C Import Name Table
                     0 time date stamp
                     0 Index of first forwarder reference

                    0 QueryPerformanceCounter

  Summary

        2000 .data
        1000 .idata
        1000 .reloc
        1000 .rsrc
        7000 .text
