Microsoft (R) COFF/PE Dumper Version 14.29.30137.0
Copyright (C) Microsoft Corporation.  All rights reserved.


Dump of file C:\Windows\WinSxS\amd64_microsoft-windows-grouppolicy-script_31bf3856ad364e35_10.0.19041.1_none_1b0846060f09c968\gpscript.exe

File Type: EXECUTABLE IMAGE

  Image has the following dependencies:

    api-ms-win-core-file-l1-1-0.dll
    api-ms-win-core-registry-l1-1-0.dll
    api-ms-win-core-errorhandling-l1-1-0.dll
    api-ms-win-core-processthreads-l1-1-0.dll
    api-ms-win-core-processenvironment-l1-1-0.dll
    api-ms-win-core-synch-l1-1-0.dll
    api-ms-win-core-heap-l2-1-0.dll
    api-ms-win-core-sysinfo-l1-1-0.dll
    api-ms-win-core-handle-l1-1-0.dll
    api-ms-win-core-libraryloader-l1-2-0.dll
    api-ms-win-core-string-l1-1-0.dll
    api-ms-win-core-heap-l1-1-0.dll
    USER32.dll
    msvcrt.dll
    ntdll.dll
    api-ms-win-core-debug-l1-1-0.dll
    api-ms-win-security-base-l1-1-0.dll
    api-ms-win-security-sddl-l1-1-0.dll
    api-ms-win-core-synch-l1-2-0.dll
    api-ms-win-core-profile-l1-1-0.dll

  Section contains the following imports:

    api-ms-win-core-file-l1-1-0.dll
             140007C58 Import Address Table
             14000A958 Import Name Table
                     0 time date stamp
                     0 Index of first forwarder reference

                          5B WriteFile
                           6 CreateFileW
                          2B GetFileAttributesExW
                           1 CompareFileTime
                           3 CreateDirectoryW
                          55 SetFilePointer

    api-ms-win-core-registry-l1-1-0.dll
             140007D90 Import Address Table
             14000AA90 Import Name Table
                     0 time date stamp
                     0 Index of first forwarder reference

                          1C RegOpenCurrentUser
                           0 RegCloseKey
                          25 RegQueryValueExW
                          21 RegQueryInfoKeyW
                          1E RegOpenKeyExW
                          2E RegSetValueExW

    api-ms-win-core-errorhandling-l1-1-0.dll
             140007C30 Import Address Table
             14000A930 Import Name Table
                     0 time date stamp
                     0 Index of first forwarder reference

                          11 UnhandledExceptionFilter
                           F SetUnhandledExceptionFilter
                           D SetLastError
                           5 GetLastError

    api-ms-win-core-processthreads-l1-1-0.dll
             140007D20 Import Address Table
             14000AA20 Import Name Table
                     0 time date stamp
                     0 Index of first forwarder reference

                          4B SetThreadToken
                          10 GetCurrentThread
                          31 OpenProcessToken
                           C GetCurrentProcess
                           3 CreateProcessW
                           D GetCurrentProcessId
                          11 GetCurrentThreadId
                          13 GetExitCodeProcess
                          4E TerminateProcess
                          33 OpenThreadToken
                          20 GetStartupInfoW

    api-ms-win-core-processenvironment-l1-1-0.dll
             140007CF8 Import Address Table
             14000A9F8 Import Name Table
                     0 time date stamp
                     0 Index of first forwarder reference

                           1 ExpandEnvironmentStringsW
                          12 SetCurrentDirectoryW
                           B GetEnvironmentVariableW
                          15 SetEnvironmentVariableW

    api-ms-win-core-synch-l1-1-0.dll
             140007DD8 Import Address Table
             14000AAD8 Import Name Table
                     0 time date stamp
                     0 Index of first forwarder reference

                          36 WaitForSingleObject

    api-ms-win-core-heap-l2-1-0.dll
             140007CB8 Import Address Table
             14000A9B8 Import Name Table
                     0 time date stamp
                     0 Index of first forwarder reference

                           2 LocalAlloc
                           3 LocalFree

    api-ms-win-core-sysinfo-l1-1-0.dll
             140007DF8 Import Address Table
             14000AAF8 Import Name Table
                     0 time date stamp
                     0 Index of first forwarder reference

                           5 GetLocalTime
                           F GetSystemDirectoryW
                          16 GetSystemTimeAsFileTime
                          1A GetTickCount
                          13 GetSystemTime

    api-ms-win-core-handle-l1-1-0.dll
             140007C90 Import Address Table
             14000A990 Import Name Table
                     0 time date stamp
                     0 Index of first forwarder reference

                           0 CloseHandle
                           2 DuplicateHandle

    api-ms-win-core-libraryloader-l1-2-0.dll
             140007CD0 Import Address Table
             14000A9D0 Import Name Table
                     0 time date stamp
                     0 Index of first forwarder reference

                           C FreeLibrary
                          15 GetProcAddress
                          14 GetModuleHandleW
                          18 LoadLibraryExW

    api-ms-win-core-string-l1-1-0.dll
             140007DC8 Import Address Table
             14000AAC8 Import Name Table
                     0 time date stamp
                     0 Index of first forwarder reference

                           2 CompareStringW

    api-ms-win-core-heap-l1-1-0.dll
             140007CA8 Import Address Table
             14000A9A8 Import Name Table
                     0 time date stamp
                     0 Index of first forwarder reference

                           A HeapSetInformation

    USER32.dll
             140007C08 Import Address Table
             14000A908 Import Name Table
                     0 time date stamp
                     0 Index of first forwarder reference

                         1C7 GetSystemMetrics
                         3C5 UpdatePerUserSystemParameters

    msvcrt.dll
             140007E58 Import Address Table
             14000AB58 Import Name Table
                     0 time date stamp
                     0 Index of first forwarder reference

                          12 ??1type_info@@UEAA@XZ
                         290 _onexit
                          7B __dllonexit
                         1E6 _lock
                          2F ?terminate@@YAXXZ
                          D2 _commode
                         127 _fmode
                         382 _wcmdln
                          57 __C_specific_handler
                         17D _initterm
                          90 __setusermatherr
                          C1 _cexit
                         10E _exit
                         432 exit
                          8E __set_app_type
                          9D __wgetmainargs
                          AE _amsg_exit
                         496 memset
                         494 memmove
                         492 memcpy
                          4B _CxxThrowException
                          31 ?what@exception@@UEBAPEBDXZ
                          11 ??1exception@@UEAA@XZ
                           C ??0exception@@QEAA@AEBV0@@Z
                           B ??0exception@@QEAA@AEBQEBDH@Z
                           A ??0exception@@QEAA@AEBQEBD@Z
                          BF _callnewh
                         486 malloc
                         29E _purecall
                          14 ??3@YAXPEAX@Z
                          55 _XcptFilter
                          5B __CxxFrameHandler3
                          99 __wargv
                          71 __argc
                         1D9 _itow
                         369 _vsnwprintf
                         341 _unlock

    ntdll.dll
             140007F88 Import Address Table
             14000AC88 Import Name Table
                     0 time date stamp
                     0 Index of first forwarder reference

                         627 RtlVirtualUnwind
                         4E8 RtlLookupFunctionEntry
                         2F2 RtlCaptureContext
                         330 RtlCopySid
                         4D1 RtlLengthSid

    api-ms-win-core-debug-l1-1-0.dll
             140007C20 Import Address Table
             14000A920 Import Name Table
                     0 time date stamp
                     0 Index of first forwarder reference

                           7 OutputDebugStringW

    api-ms-win-security-base-l1-1-0.dll
             140007E28 Import Address Table
             14000AB28 Import Name Table
                     0 time date stamp
                     0 Index of first forwarder reference

                          42 GetTokenInformation
                          2C EqualSid
                          45 ImpersonateLoggedOnUser

    api-ms-win-security-sddl-l1-1-0.dll
             140007E48 Import Address Table
             14000AB48 Import Name Table
                     0 time date stamp
                     0 Index of first forwarder reference

                           1 ConvertSidToStringSidW

    api-ms-win-core-synch-l1-2-0.dll
             140007DE8 Import Address Table
             14000AAE8 Import Name Table
                     0 time date stamp
                     0 Index of first forwarder reference

                          2D Sleep

    api-ms-win-core-profile-l1-1-0.dll
             140007D80 Import Address Table
             14000AA80 Import Name Table
                     0 time date stamp
                     0 Index of first forwarder reference

                           0 QueryPerformanceCounter

  Summary

        2000 .data
        1000 .pdata
        5000 .rdata
        1000 .reloc
        1000 .rsrc
        6000 .text
