Microsoft (R) COFF/PE Dumper Version 14.29.30137.0
Copyright (C) Microsoft Corporation.  All rights reserved.


Dump of file C:\Windows\WinSxS\amd64_windows-senseclient-service_31bf3856ad364e35_10.0.19041.1415_none_1cd00611447ac12d\SenseCM.exe

File Type: EXECUTABLE IMAGE

  Image has the following dependencies:

    USERENV.dll
    NETAPI32.dll
    WINHTTP.dll
    CRYPT32.dll
    USER32.dll
    ADVAPI32.dll
    WS2_32.dll
    bcrypt.dll
    ntdll.dll
    KERNEL32.dll
    WLDAP32.dll
    ole32.dll

  Section contains the following imports:

    USERENV.dll
             140310610 Import Address Table
             1403DEB50 Import Name Table
                     0 time date stamp
                     0 Index of first forwarder reference

                          17 GetAllUsersProfileDirectoryW

    NETAPI32.dll
             1403105D8 Import Address Table
             1403DEB18 Import Name Table
                     0 time date stamp
                     0 Index of first forwarder reference

                          51 NetApiBufferFree
                          86 NetGetJoinInformation

    WINHTTP.dll
             140310620 Import Address Table
             1403DEB60 Import Name Table
                     0 time date stamp
                     0 Index of first forwarder reference

                          1E WinHttpGetProxyForUrl
                          1D WinHttpGetIEProxyConfigForCurrentUser
                          26 WinHttpOpen
                          1C WinHttpGetDefaultProxyConfiguration

    CRYPT32.dll
             140310130 Import Address Table
             1403DE670 Import Name Table
                     0 time date stamp
                     0 Index of first forwarder reference

                          12 CertCloseStore
                          2C CertEnumCertificatesInStore
                          35 CertFindCertificateInStore
                          25 CertDuplicateCertificateContext
                          40 CertFreeCertificateContext
                          46 CertGetCertificateContextProperty
                          59 CertOpenStore

    USER32.dll
             1403105F0 Import Address Table
             1403DEB30 Import Name Table
                     0 time date stamp
                     0 Index of first forwarder reference

                         1AE GetProcessWindowStation
                         1D8 GetUserObjectInformationW
                         28C MessageBoxW

    ADVAPI32.dll
             140310000 Import Address Table
             1403DE540 Import Name Table
                     0 time date stamp
                     0 Index of first forwarder reference

                          CF CryptEnumProvidersW
                          E5 CryptSignHashW
                          C7 CryptDestroyHash
                          C4 CryptCreateHash
                          C5 CryptDecrypt
                          D0 CryptExportKey
                          D8 CryptGetUserKey
                          D7 CryptGetProvParam
                          DD CryptSetHashParam
                          C8 CryptDestroyKey
                          DC CryptReleaseContext
                          C2 CryptAcquireContextW
                         2C0 ReportEventW
                         2AE RegisterEventSourceW
                          ED DeregisterEventSource
                         170 GetTokenInformation
                          83 ConvertStringSidToSidW
                         19E IsValidSid
                         190 InitializeSid
                         16C GetSidSubAuthority
                         16B GetSidLengthRequired
                         14B GetLengthSid
                         25B RegCloseKey
                         2A9 RegSetValueExW
                         121 EventRegister
                         122 EventSetInformation
                         129 EventWriteTransfer
                         28C RegOpenKeyExW
                         299 RegQueryValueExW
                         264 RegCreateKeyExW
                          F1 DuplicateTokenEx
                         215 OpenProcessToken
                          1F AdjustTokenPrivileges
                         1AF LookupPrivilegeValueW
                          5F CheckTokenMembership
                          85 CopySid
                         11A EqualSid

    WS2_32.dll
             1403106D0 Import Address Table
             1403DEC10 Import Name Table
                     0 time date stamp
                     0 Index of first forwarder reference

                          B6 inet_pton
                             Ordinal   111
                             Ordinal    23
                             Ordinal   151
                          A9 getnameinfo
                             Ordinal    22
                             Ordinal    57
                             Ordinal    10
                             Ordinal    20
                             Ordinal    17
                             Ordinal    18
                             Ordinal     1
                          A4 freeaddrinfo
                          A5 getaddrinfo
                             Ordinal   116
                             Ordinal   115
                          3A WSAIoctl
                             Ordinal    21
                             Ordinal    15
                             Ordinal     9
                             Ordinal     7
                             Ordinal     6
                             Ordinal     5
                             Ordinal     4
                             Ordinal     3
                             Ordinal     2
                             Ordinal    19
                             Ordinal    16
                             Ordinal   112
                             Ordinal    13

    bcrypt.dll
             1403107C8 Import Address Table
             1403DED08 Import Name Table
                     0 time date stamp
                     0 Index of first forwarder reference

                          1D BCryptGenRandom

    ntdll.dll
             1403107D8 Import Address Table
             1403DED18 Import Name Table
                     0 time date stamp
                     0 Index of first forwarder reference

                         6CC VerSetConditionMask
                         628 RtlVirtualUnwind
                         510 RtlPcToFileHeader
                         2F3 RtlCaptureContext
                         4E9 RtlLookupFunctionEntry
                         60E RtlUnwindEx
                         60D RtlUnwind

    KERNEL32.dll
             140310170 Import Address Table
             1403DE6B0 Import Name Table
                     0 time date stamp
                     0 Index of first forwarder reference

                         134 EncodePointer
                         1BB GetACP
                         2A1 GetOEMCP
                         241 GetEnvironmentStringsW
                         1B3 FreeEnvironmentStringsW
                         524 SetEnvironmentVariableW
                         3B7 LCMapStringEx
                         624 WriteConsoleW
                         392 IsValidCodePage
                         318 GetTimeZoneInformation
                         55B SetStdHandle
                         1A8 FlushFileBuffers
                         15C EnumSystemLocalesW
                         31E GetUserDefaultLCID
                         394 IsValidLocale
                         26E GetLocaleInfoW
                         3B8 LCMapStringW
                          9E CompareStringW
                         316 GetTimeFormatW
                         22B GetDateFormatW
                         209 GetConsoleOutputCP
                         1E0 GetCommandLineW
                         1DF GetCommandLineA
                         27D GetModuleFileNameW
                         167 ExitProcess
                         4F9 SetConsoleCtrlHandler
                         1B5 FreeLibraryAndExitThread
                         168 ExitThread
                          F5 CreateThread
                         173 FileTimeToSystemTime
                         59B SystemTimeToTzSpecificLocalTime
                         239 GetDriveTypeW
                         3CA LoadLibraryExW
                         41E OutputDebugStringW
                         2DA GetStartupInfoW
                         385 IsDebuggerPresent
                         38C IsProcessorFeaturePresent
                         59E TerminateProcess
                         57F SetUnhandledExceptionFilter
                         5C0 UnhandledExceptionFilter
                         36F InitializeSListHead
                         1B4 FreeLibrary
                         243 GetEnvironmentVariableW
                         26A GetLastError
                         2B8 GetProcAddress
                         3CB LoadLibraryW
                          89 CloseHandle
                         281 GetModuleHandleW
                         1E8 GetComputerNameW
                         653 lstrlenW
                         220 GetCurrentProcess
                          CE CreateFileW
                         255 GetFileSize
                         479 ReadFile
                         520 SetEndOfFile
                         532 SetFilePointer
                         625 WriteFile
                         3D6 LocalFree
                         1AF FormatMessageA
                         1B0 FormatMessageW
                         611 WideCharToMultiByte
                         10D DecodePointer
                         468 RaiseException
                         354 HeapDestroy
                         351 HeapAlloc
                         358 HeapReAlloc
                         355 HeapFree
                         35A HeapSize
                         2BE GetProcessHeap
                         36C InitializeCriticalSectionEx
                         114 DeleteCriticalSection
                         221 GetCurrentProcessId
                         44C QueryFullProcessImageNameW
                         412 OpenProcess
                         138 EnterCriticalSection
                         3C4 LeaveCriticalSection
                         58F Sleep
                         592 SleepEx
                         453 QueryPerformanceFrequency
                         2E9 GetSystemDirectoryA
                         27E GetModuleHandleA
                         3C8 LoadLibraryA
                         5D7 VerifyVersionInfoA
                         452 QueryPerformanceCounter
                         311 GetTickCount
                         5EB WaitForSingleObjectEx
                         16A ExpandEnvironmentStringsA
                         2DC GetStdHandle
                         258 GetFileType
                         427 PeekNamedPipe
                         5E8 WaitForMultipleObjects
                         541 SetLastError
                         3F6 MultiByteToWideChar
                         256 GetFileSizeEx
                         598 SwitchToFiber
                         115 DeleteFiber
                          A4 ConvertFiberToThread
                          A7 ConvertThreadToFiber
                         2F1 GetSystemTime
                         59A SystemTimeToFileTime
                         205 GetConsoleMode
                         509 SetConsoleMode
                         46C ReadConsoleA
                         476 ReadConsoleW
                         36B InitializeCriticalSectionAndSpinCount
                         225 GetCurrentThreadId
                         5B0 TlsAlloc
                         5B2 TlsGetValue
                         5B3 TlsSetValue
                         5B1 TlsFree
                          C3 CreateFiber
                         17E FindClose
                         189 FindFirstFileW
                         195 FindNextFileW
                         280 GetModuleHandleExW
                         2F3 GetSystemTimeAsFileTime
                         21A GetCurrentDirectoryW
                         119 DeleteFileW
                         24C GetFileAttributesExW
                         251 GetFileInformationByHandle
                         263 GetFullPathNameW
                         533 SetFilePointerEx
                          23 AreFileApisANSI
                         2E1 GetStringTypeW
                          C2 CreateEventW
                         4CC ResetEvent
                         526 SetEvent
                         26D GetLocaleInfoEx
                         1CA GetCPInfo
                          9C CompareStringEx
                         363 InitOnceBeginInitialize
                         364 InitOnceComplete
                         370 InitializeSRWLock
                         4B8 ReleaseSRWLockExclusive
                           0 AcquireSRWLockExclusive
                         5B9 TryEnterCriticalSection
                         184 FindFirstFileExW
                         252 GetFileInformationByHandleEx
                         4B9 ReleaseSRWLockShared
                           1 AcquireSRWLockShared

    WLDAP32.dll
             140310648 Import Address Table
             1403DEB88 Import Name Table
                     0 time date stamp
                     0 Index of first forwarder reference

                             Ordinal   200
                             Ordinal    30
                             Ordinal    79
                             Ordinal    35
                             Ordinal    33
                             Ordinal   301
                             Ordinal    27
                             Ordinal    26
                             Ordinal    22
                             Ordinal    41
                             Ordinal    50
                             Ordinal    60
                             Ordinal   211
                             Ordinal    46
                             Ordinal   143
                             Ordinal    32

    ole32.dll
             140310818 Import Address Table
             1403DED58 Import Name Table
                     0 time date stamp
                     0 Index of first forwarder reference

                          2A CoCreateGuid
                         20C StringFromGUID2

  Summary

       14000 .data
       1F000 .pdata
       D0000 .rdata
        8000 .reloc
        1000 .rsrc
      30F000 .text
        1000 _RDATA
