Microsoft (R) COFF/PE Dumper Version 14.29.30137.0
Copyright (C) Microsoft Corporation.  All rights reserved.


Dump of file C:\Windows\System32\AcGenral.dll

File Type: DLL

  Image has the following dependencies:

    apphelp.dll
    msvcrt.dll
    ntdll.dll
    api-ms-win-service-core-l1-1-1.dll
    api-ms-win-service-winsvc-l1-1-0.dll
    api-ms-win-service-management-l1-1-0.dll
    api-ms-win-service-management-l2-1-0.dll
    api-ms-win-eventing-provider-l1-1-0.dll
    SHLWAPI.dll
    USER32.dll
    ole32.dll
    SHELL32.dll
    USERENV.dll
    KERNEL32.dll
    ADVAPI32.dll
    RPCRT4.dll
    MPR.dll
    SspiCli.dll
    api-ms-win-core-apiquery-l1-1-0.dll

  Image has the following delay load dependencies:

    ext-ms-win-ntuser-windowstation-l1-1-0.dll
    pcacli.dll

  Section contains the following exports for AcGenral.dll

    00000000 characteristics
    326D1C23 time date stamp
        0.00 version
           1 ordinal base
           2 number of functions
           2 number of names

    ordinal hint RVA      name

          1    0 0000CCD0 GetHookAPIs
          2    1 0000CD80 NotifyShims

  Section contains the following imports:

    apphelp.dll
             180045888 Import Address Table
             18005F600 Import Name Table
                     0 time date stamp
                     0 Index of first forwarder reference

                          53 SdbFindFirstTag
                          5A SdbFindNextTag
                          85 SdbGetStringTagPtr
                          B8 SdbReleaseDatabase
                          1B SE_CALLBACK_Lookup
                          1A SE_CALLBACK_AddHook
                          9A SdbOpenLocalDatabase
                          BA SdbResolveDatabase
                          7E SdbGetPDBFromGUID
                          8A SdbInitDatabase
                          34 SE_ShimDPF
                          2A SE_GetShimId
                          1F SE_COM_HookObject
                          20 SE_COM_Lookup
                          1D SE_COM_AddServer
                          1C SE_COM_AddHook

    msvcrt.dll
             180045910 Import Address Table
             18005F688 Import Name Table
                     0 time date stamp
                     0 Index of first forwarder reference

                         502 wcscmp
                          5B __CxxFrameHandler3
                         38A _wcsicmp
                         369 _vsnwprintf
                          55 _XcptFilter
                          AE _amsg_exit
                         44C free
                         486 malloc
                         17D _initterm
                         493 memcpy_s
                         367 _vsnprintf_s
                           D ??0exception@@QEAA@XZ
                          11 ??1exception@@UEAA@XZ
                           C ??0exception@@QEAA@AEBV0@@Z
                         495 memmove_s
                         51B wcstoul
                         105 _errno
                         394 _wcsnicmp
                         29E _purecall
                         4C1 strchr
                         4D9 strtoul
                         518 wcstol
                         420 atoi
                         2FA _stricmp
                         363 _vsnprintf
                         4D4 strstr
                         50B wcsncmp
                         405 _wtoi
                         500 wcscat_s
                         517 wcstok_s
                         4D2 strrchr
                         510 wcsrchr
                         501 wcschr
                         50F wcspbrk
                         3A6 _wcsupr
                         514 wcsstr
                         513 wcsspn
                         360 _vscwprintf
                         478 iswspace
                         3F6 _wsplitpath_s
                         472 iswctype
                         4EB towlower
                         4EC towupper
                         505 wcscpy_s
                          12 ??1type_info@@UEAA@XZ
                          57 __C_specific_handler
                          2F ?terminate@@YAXXZ
                          4B _CxxThrowException
                         1E6 _lock
                         341 _unlock
                          7B __dllonexit
                         290 _onexit
                         1E1 _local_unwind
                         491 memcmp
                         492 memcpy
                         494 memmove
                         496 memset
                         4C2 strcmp

    ntdll.dll
             180045AE8 Import Address Table
             18005F860 Import Name Table
                     0 time date stamp
                     0 Index of first forwarder reference

                         435 RtlGetOwnerSecurityDescriptor
                         3BA RtlEqualSid
                         1EB NtQueryObject
                         4D1 RtlLengthRequiredSid
                         4B2 RtlIsDosDeviceName_U
                         400 RtlGUIDFromString
                         470 RtlInitUnicodeString
                         5F8 RtlUnicodeStringToInteger
                         2D9 RtlAnsiStringToUnicodeString
                         463 RtlInitAnsiString
                          FD NtClose
                         248 NtSetInformationProcess
                          22 DbgPrint
                         1A0 NtOpenFile
                         397 RtlDosPathNameToNtPathName_U
                         433 RtlGetNtSystemRoot
                         4FF RtlNtStatusToDosError
                         34B RtlCreateServiceSid
                         3FD RtlFreeUnicodeString
                         629 RtlVirtualUnwind
                         4EA RtlLookupFunctionEntry
                         2F3 RtlCaptureContext
                         3F6 RtlFreeHeap
                         2D3 RtlAllocateHeap
                         1F3 NtQuerySecurityObject
                         3F0 RtlFormatCurrentUserKeyPath
                         264 NtSetValueKey
                         11B NtCreateKey
                         1FE NtQueryValueKey
                         1A3 NtOpenKey
                         486 RtlInitializeSid
                         1E0 NtQueryInformationToken
                         5D2 RtlSubAuthoritySid
                         554 RtlReAllocateHeap
                         45C RtlImageNtHeader
                         4B8 RtlIsNameInExpression
                         1AD NtOpenProcessToken
                         1B6 NtOpenThreadToken

    api-ms-win-service-core-l1-1-1.dll
             180045830 Import Address Table
             18005F5A8 Import Name Table
                     0 time date stamp
                     0 Index of first forwarder reference

                           0 EnumDependentServicesW

    api-ms-win-service-winsvc-l1-1-0.dll
             180045878 Import Address Table
             18005F5F0 Import Name Table
                     0 time date stamp
                     0 Index of first forwarder reference

                           2 ControlService

    api-ms-win-service-management-l1-1-0.dll
             180045840 Import Address Table
             18005F5B8 Import Name Table
                     0 time date stamp
                     0 Index of first forwarder reference

                           5 OpenServiceW
                           4 OpenSCManagerW
                           3 DeleteService
                           0 CloseServiceHandle

    api-ms-win-service-management-l2-1-0.dll
             180045868 Import Address Table
             18005F5E0 Import Name Table
                     0 time date stamp
                     0 Index of first forwarder reference

                           6 QueryServiceStatusEx

    api-ms-win-eventing-provider-l1-1-0.dll
             180045820 Import Address Table
             18005F598 Import Name Table
                     0 time date stamp
                     0 Index of first forwarder reference

                           9 EventWriteTransfer

    SHLWAPI.dll
             180045718 Import Address Table
             18005F490 Import Name Table
                     0 time date stamp
                     0 Index of first forwarder reference

                         108 SHStrDupW
                          C7 SHGetValueW

    USER32.dll
             180045740 Import Address Table
             18005F4B8 Import Name Table
                     0 time date stamp
                     0 Index of first forwarder reference

                         159 GetGUIThreadInfo
                         247 IsWindow
                         1F8 GetWindowThreadProcessId
                         35A SetRect
                         1C7 GetSystemMetrics
                         318 SendMessageW
                         1C1 GetShellWindow
                          FD EnumDisplayDevicesW
                         131 GetClassNameW
                         359 SetPropW
                         38D ShowWindow
                         258 LoadCursorW
                         384 SetWindowsHookExAW
                         328 SetCursor
                         3AD TranslateMessage
                           8 AllowSetForegroundWindow
                         293 MsgWaitForMultipleObjects
                          BD DispatchMessageW
                         2B0 PostQuitMessage
                         2F3 RegisterSuspendResumeNotification
                         18B GetMonitorInfoW
                         2AB PeekMessageW

    ole32.dll
             180045C20 Import Address Table
             18005F998 Import Name Table
                     0 time date stamp
                     0 Index of first forwarder reference

                          8C CoTaskMemFree
                          2B CoCreateInstance
                          54 CoGetObject
                         20C StringFromGUID2

    SHELL32.dll
             1800456E0 Import Address Table
             18005F458 Import Name Table
                     0 time date stamp
                     0 Index of first forwarder reference

                         150 SHGetFolderPathW
                         14F SHGetFolderPathEx
                          9D SHCreateDirectoryExW
                             Ordinal   165
                          8D SHChangeNotify
                         16E SHGetSpecialFolderPathW

    USERENV.dll
             1800457F8 Import Address Table
             18005F570 Import Name Table
                     0 time date stamp
                     0 Index of first forwarder reference

                          26 GetUserProfileDirectoryW
                          17 GetAllUsersProfileDirectoryW

    KERNEL32.dll
             1800452C0 Import Address Table
             18005F038 Import Name Table
                     0 time date stamp
                     0 Index of first forwarder reference

                         332 GetWindowsDirectoryW
                         2D7 GetShortPathNameW
                         277 GetLongPathNameW
                         263 GetFullPathNameW
                         444 QueryActCtxSettingsW
                         4E8 SearchPathW
                         64A lstrcmpiW
                          CE CreateFileW
                         4CF ResolveDelayLoadedAPI
                         111 DelayLoadFailureHook
                         5F2 WakeAllConditionVariable
                         591 SleepConditionVariableSRW
                         2EA GetSystemDirectoryW
                         21A GetCurrentDirectoryW
                         434 ProcessIdToSessionId
                          C2 CreateEventW
                         24F GetFileAttributesW
                         24A GetFileAttributesA
                          9D CompareStringOrdinal
                         54C SetProcessAffinityMask
                         273 GetLogicalProcessorInformationEx
                         223 GetCurrentProcessorNumberEx
                         242 GetEnvironmentVariableA
                         4D3 ResumeThread
                          7D CheckElevationEnabled
                         5DF VirtualProtect
                         27D GetModuleFileNameW
                          F5 CreateThread
                         16B ExpandEnvironmentStringsW
                         321 GetUserDefaultUILanguage
                         525 SetErrorMode
                          89 CloseHandle
                         40E OpenMutexW
                         221 GetCurrentProcessId
                          DD CreateMutexW
                         58F Sleep
                         452 QueryPerformanceCounter
                         225 GetCurrentThreadId
                         2F3 GetSystemTimeAsFileTime
                         311 GetTickCount
                         5C0 UnhandledExceptionFilter
                         57F SetUnhandledExceptionFilter
                         220 GetCurrentProcess
                         59E TerminateProcess
                         1B0 FormatMessageW
                         351 HeapAlloc
                         2BE GetProcessHeap
                         355 HeapFree
                         280 GetModuleHandleExW
                         27C GetModuleFileNameA
                         10A DebugBreak
                         281 GetModuleHandleW
                         2B8 GetProcAddress
                         26A GetLastError
                         385 IsDebuggerPresent
                         41E OutputDebugStringW
                         541 SetLastError
                         4BA ReleaseSemaphore
                         4B6 ReleaseMutex
                         578 SetThreadpoolTimer
                         5ED WaitForThreadpoolTimerCallbacks
                          93 CloseThreadpoolTimer
                         5EB WaitForSingleObjectEx
                           0 AcquireSRWLockExclusive
                           1 AcquireSRWLockShared
                         138 EnterCriticalSection
                         36C InitializeCriticalSectionEx
                         114 DeleteCriticalSection
                         5EA WaitForSingleObject
                         416 OpenSemaphoreW
                         1A0 FindStringOrdinal
                         4B8 ReleaseSRWLockExclusive
                         4B9 ReleaseSRWLockShared
                          F9 CreateThreadpoolTimer
                         3AA K32GetModuleFileNameExW
                          DC CreateMutexExW
                         3C4 LeaveCriticalSection
                          EE CreateSemaphoreExW
                         35A HeapSize
                         35D HeapValidate
                         36B InitializeCriticalSectionAndSpinCount
                         5D9 VirtualAlloc
                         5DC VirtualFree
                         552 SetProcessInformation
                         167 ExitProcess
                         524 SetEnvironmentVariableW
                         243 GetEnvironmentVariableW
                         398 IsWow64Process
                         1DF GetCommandLineA
                          E3 CreateProcessA
                         246 GetExitCodeProcess
                         3D6 LocalFree
                         19F FindResourceW
                         58E SizeofResource
                         3CE LoadResource
                         3E2 LockResource
                         3F6 MultiByteToWideChar
                         523 SetEnvironmentVariableA
                         3CA LoadLibraryExW
                         1B4 FreeLibrary
                         3CB LoadLibraryW
                         1E0 GetCommandLineW
                         653 lstrlenW
                          B3 CreateActCtxW
                         446 QueryActCtxW
                         4B4 ReleaseActCtx
                         312 GetTickCount64
                         3EF MoveFileExW
                         3D1 LocalAlloc
                          9C CompareStringEx
                         3B5 LCIDToLocaleName
                         26D GetLocaleInfoEx
                         3B7 LCMapStringEx
                         358 HeapReAlloc
                         611 WideCharToMultiByte
                         191 FindNLSStringEx
                         387 IsNLSDefinedString
                           8 AddDllDirectory

    ADVAPI32.dll
             180045200 Import Address Table
             18005EF78 Import Name Table
                     0 time date stamp
                     0 Index of first forwarder reference

                         25E RegCloseKey
                         29C RegQueryValueExW
                         267 RegCreateKeyExW
                         296 RegQueryInfoKeyW
                         280 RegEnumValueW
                         2AC RegSetValueExW
                         27D RegEnumKeyExW
                          83 ConvertStringSidToSidW
                         1A9 LookupAccountSidW
                         26D RegDeleteKeyExW
                         276 RegDeleteValueW
                         2AB RegSetValueExA
                         218 OpenProcessToken
                         284 RegGetValueW
                         288 RegLoadKeyW
                         2AF RegUnLoadKeyW
                         1AF LookupPrivilegeValueW
                          1F AdjustTokenPrivileges
                         170 GetTokenInformation
                         2FE StartServiceW
                          93 CreateWellKnownSid
                         253 QueryServiceStatus
                         28F RegOpenKeyExW

    RPCRT4.dll
             180045688 Import Address Table
             18005F400 Import Name Table
                     0 time date stamp
                     0 Index of first forwarder reference

                         174 RpcBindingFree
                          94 Ndr64AsyncClientCall
                         215 RpcStringFreeW
                         186 RpcBindingSetAuthInfoExW
                         16E RpcAsyncInitializeHandle
                         16B RpcAsyncCancelCall
                         176 RpcBindingFromStringBindingW
                         16C RpcAsyncCompleteCall
                         211 RpcStringBindingComposeW
                          2E I_RpcExceptionFilter

    MPR.dll
             180045678 Import Address Table
             18005F3F0 Import Name Table
                     0 time date stamp
                     0 Index of first forwarder reference

                          2D WNetGetConnectionW

    SspiCli.dll
             180045730 Import Address Table
             18005F4A8 Import Name Table
                     0 time date stamp
                     0 Index of first forwarder reference

                          19 GetUserNameExW

    api-ms-win-core-apiquery-l1-1-0.dll
             180045810 Import Address Table
             18005F588 Import Name Table
                     0 time date stamp
                     0 Index of first forwarder reference

                           0 ApiSetQueryApiSetPresence

  Section contains the following delay load imports:

    ext-ms-win-ntuser-windowstation-l1-1-0.dll
              00000001 Characteristics
      0000000180062DF0 Address of HMODULE
      0000000180068000 Import Address Table
      000000018005ECB8 Import Name Table
      000000018005ED48 Bound Import Name Table
      0000000000000000 Unload Import Name Table
                     0 time date stamp

                                    000000018000320A     6 GetThreadDesktop
                                    00000001800031F8     7 GetUserObjectInformationW
                                    0000000180003116     5 GetProcessWindowStation

    pcacli.dll
              00000001 Characteristics
      0000000180062E08 Address of HMODULE
      0000000180068020 Import Address Table
      000000018005ECD8 Import Name Table
      000000018005ED68 Bound Import Name Table
      0000000000000000 Unload Import Name Table
                     0 time date stamp

                                    000000018000321C     3 PcaMonitorProcess

  Summary

        2000 .data
        1000 .didat
        4000 .pdata
       1E000 .rdata
        1000 .reloc
        2000 .rsrc
       43000 .text
