Microsoft (R) COFF/PE Dumper Version 14.29.30137.0
Copyright (C) Microsoft Corporation.  All rights reserved.


Dump of file C:\Windows\System32\AcSpecfc.dll

File Type: DLL

  Image has the following dependencies:

    apphelp.dll
    msvcrt.dll
    ntdll.dll
    api-ms-win-core-registry-l1-1-0.dll
    SspiCli.dll
    KERNEL32.dll
    ADVAPI32.dll
    ole32.dll
    SHELL32.dll
    USERENV.dll
    msi.dll
    WINSPOOL.DRV

  Section contains the following exports for AcSpecfc.dll

    00000000 characteristics
    A647A81D time date stamp
        0.00 version
           1 ordinal base
           2 number of functions
           2 number of names

    ordinal hint RVA      name

          1    0 0000AF50 GetHookAPIs
          2    1 0000B000 NotifyShims

  Section contains the following imports:

    apphelp.dll
             18000D3B0 Import Address Table
             180013030 Import Name Table
                     0 time date stamp
                     0 Index of first forwarder reference

                          1D SE_COM_AddServer
                          1F SE_COM_HookObject
                          20 SE_COM_Lookup
                          34 SE_ShimDPF
                          2A SE_GetShimId
                          1C SE_COM_AddHook

    msvcrt.dll
             18000D3F8 Import Address Table
             180013078 Import Name Table
                     0 time date stamp
                     0 Index of first forwarder reference

                         494 memmove
                          5B __CxxFrameHandler3
                         38A _wcsicmp
                          4B _CxxThrowException
                          55 _XcptFilter
                         492 memcpy
                         50B wcsncmp
                         510 wcsrchr
                         394 _wcsnicmp
                         369 _vsnwprintf
                          57 __C_specific_handler
                         513 wcsspn
                         472 iswctype
                         4EB towlower
                         501 wcschr
                         514 wcsstr
                          12 ??1type_info@@UEAA@XZ
                         17D _initterm
                         486 malloc
                         44C free
                          AE _amsg_exit
                         496 memset
                         478 iswspace
                         360 _vscwprintf

    ntdll.dll
             18000D4C0 Import Address Table
             180013140 Import Name Table
                     0 time date stamp
                     0 Index of first forwarder reference

                         2D3 RtlAllocateHeap
                         3F6 RtlFreeHeap
                         1E7 NtQueryKey
                         628 RtlVirtualUnwind
                         4E9 RtlLookupFunctionEntry
                         2F3 RtlCaptureContext

    api-ms-win-core-registry-l1-1-0.dll
             18000D380 Import Address Table
             180013000 Import Name Table
                     0 time date stamp
                     0 Index of first forwarder reference

                          1E RegOpenKeyExW
                          2E RegSetValueExW
                           0 RegCloseKey
                          25 RegQueryValueExW
                          14 RegGetValueW

    SspiCli.dll
             18000D340 Import Address Table
             180012FC0 Import Name Table
                     0 time date stamp
                     0 Index of first forwarder reference

                          19 GetUserNameExW

    KERNEL32.dll
             18000D198 Import Address Table
             180012E18 Import Name Table
                     0 time date stamp
                     0 Index of first forwarder reference

                         3AD K32GetProcessImageFileNameW
                          E7 CreateProcessW
                          88 CloseHandle
                         411 OpenProcess
                         39F K32EnumProcesses
                         58D Sleep
                          F4 CreateThread
                         2E9 GetSystemDirectoryW
                         4E7 SearchPathW
                         245 GetExitCodeProcess
                         166 ExitProcess
                         16A ExpandEnvironmentStringsW
                         3F1 MoveFileW
                         5E8 WaitForSingleObject
                         269 GetLastError
                         523 SetEnvironmentVariableW
                         310 GetTickCount
                         2F2 GetSystemTimeAsFileTime
                         224 GetCurrentThreadId
                         451 QueryPerformanceCounter
                         59C TerminateProcess
                         57D SetUnhandledExceptionFilter
                         5BE UnhandledExceptionFilter
                         21F GetCurrentProcess
                         262 GetFullPathNameW
                         276 GetLongPathNameW
                         331 GetWindowsDirectoryW
                         354 HeapFree
                         27C GetModuleFileNameW
                         24E GetFileAttributesW
                         3F5 MultiByteToWideChar
                         3D0 LocalAlloc
                         220 GetCurrentProcessId
                         27D GetModuleHandleA
                         3D5 LocalFree
                         326 GetVersionExW
                         5AF TlsFree
                         5AE TlsAlloc
                         5B0 TlsGetValue
                         5B1 TlsSetValue
                         2BD GetProcessHeap
                         350 HeapAlloc
                         27F GetModuleHandleExW
                         17D FindClose
                         242 GetEnvironmentVariableW
                         2B7 GetProcAddress
                         280 GetModuleHandleW
                         1DF GetCommandLineW
                         188 FindFirstFileW

    ADVAPI32.dll
             18000D138 Import Address Table
             180012DB8 Import Name Table
                     0 time date stamp
                     0 Index of first forwarder reference

                         251 QueryServiceStatusEx
                         2FB StartServiceW
                         217 OpenSCManagerW
                         219 OpenServiceW
                          65 CloseServiceHandle
                         1D7 LsaOpenPolicy
                         1E0 LsaQueryInformationPolicy
                         1C3 LsaFreeMemory
                         129 EventWriteTransfer
                         215 OpenProcessToken
                          6A ControlService

    ole32.dll
             18000D4F8 Import Address Table
             180013178 Import Name Table
                     0 time date stamp
                     0 Index of first forwarder reference

                          8B CoTaskMemAlloc
                          8C CoTaskMemFree

    SHELL32.dll
             18000D328 Import Address Table
             180012FA8 Import Name Table
                     0 time date stamp
                     0 Index of first forwarder reference

                         16D SHGetSpecialFolderPathW
                         14F SHGetFolderPathW

    USERENV.dll
             18000D350 Import Address Table
             180012FD0 Import Name Table
                     0 time date stamp
                     0 Index of first forwarder reference

                          26 GetUserProfileDirectoryW
                          17 GetAllUsersProfileDirectoryW

    msi.dll
             18000D3E8 Import Address Table
             180013068 Import Name Table
                     0 time date stamp
                     0 Index of first forwarder reference

                             Ordinal   145

    WINSPOOL.DRV
             18000D368 Import Address Table
             180012FE8 Import Name Table
                     0 time date stamp
                     0 Index of first forwarder reference

                          96 OpenPrinterW
                          55 EnumFormsW

  Summary

        1000 .data
        1000 .pdata
        7000 .rdata
        1000 .reloc
        1000 .rsrc
        C000 .text
