Microsoft (R) COFF/PE Dumper Version 14.29.30137.0
Copyright (C) Microsoft Corporation.  All rights reserved.


Dump of file C:\Windows\System32\AuditNativeSnapIn.dll

File Type: DLL

  Image has the following dependencies:

    msvcrt.dll
    api-ms-win-core-com-l1-1-0.dll
    api-ms-win-core-libraryloader-l1-2-0.dll
    api-ms-win-core-heap-l1-1-0.dll
    api-ms-win-core-heap-l2-1-0.dll
    api-ms-win-core-errorhandling-l1-1-0.dll
    api-ms-win-core-synch-l1-2-0.dll
    api-ms-win-core-profile-l1-1-0.dll
    api-ms-win-core-processthreads-l1-1-0.dll
    api-ms-win-core-sysinfo-l1-1-0.dll
    api-ms-win-core-rtlsupport-l1-1-0.dll
    KERNEL32.dll
    USER32.dll

  Section contains the following exports for AuditNativeSnapIn.dll

    00000000 characteristics
    E05E5629 time date stamp
        0.00 version
           1 ordinal base
           2 number of functions
           2 number of names

    ordinal hint RVA      name

          1    0 000017B0 DllCanUnloadNow
          2    1 00001640 DllGetClassObject

  Section contains the following imports:

    msvcrt.dll
             1800044F8 Import Address Table
             1800052C0 Import Name Table
                     0 time date stamp
                     0 Index of first forwarder reference

                         17D _initterm
                         29E _purecall
                          AE _amsg_exit
                          55 _XcptFilter
                          BF _callnewh
                         486 malloc
                         44C free
                          57 __C_specific_handler
                         496 memset

    api-ms-win-core-com-l1-1-0.dll
             1800043E0 Import Address Table
             1800051A8 Import Name Table
                     0 time date stamp
                     0 Index of first forwarder reference

                          42 CoTaskMemAlloc
                          4B CreateStreamOnHGlobal
                          43 CoTaskMemFree
                          53 StringFromCLSID

    api-ms-win-core-libraryloader-l1-2-0.dll
             180004460 Import Address Table
             180005228 Import Name Table
                     0 time date stamp
                     0 Index of first forwarder reference

                          1C LoadStringW
                           E FreeResource

    api-ms-win-core-heap-l1-1-0.dll
             180004428 Import Address Table
             1800051F0 Import Name Table
                     0 time date stamp
                     0 Index of first forwarder reference

                           2 HeapAlloc
                           6 HeapFree
                           0 GetProcessHeap

    api-ms-win-core-heap-l2-1-0.dll
             180004448 Import Address Table
             180005210 Import Name Table
                     0 time date stamp
                     0 Index of first forwarder reference

                           1 GlobalFree
                           0 GlobalAlloc

    api-ms-win-core-errorhandling-l1-1-0.dll
             180004408 Import Address Table
             1800051D0 Import Name Table
                     0 time date stamp
                     0 Index of first forwarder reference

                           5 GetLastError
                           F SetUnhandledExceptionFilter
                          11 UnhandledExceptionFilter

    api-ms-win-core-synch-l1-2-0.dll
             1800044D0 Import Address Table
             180005298 Import Name Table
                     0 time date stamp
                     0 Index of first forwarder reference

                          2D Sleep

    api-ms-win-core-profile-l1-1-0.dll
             1800044A0 Import Address Table
             180005268 Import Name Table
                     0 time date stamp
                     0 Index of first forwarder reference

                           0 QueryPerformanceCounter

    api-ms-win-core-processthreads-l1-1-0.dll
             180004478 Import Address Table
             180005240 Import Name Table
                     0 time date stamp
                     0 Index of first forwarder reference

                           D GetCurrentProcessId
                          4E TerminateProcess
                           C GetCurrentProcess
                          11 GetCurrentThreadId

    api-ms-win-core-sysinfo-l1-1-0.dll
             1800044E0 Import Address Table
             1800052A8 Import Name Table
                     0 time date stamp
                     0 Index of first forwarder reference

                          1A GetTickCount
                          16 GetSystemTimeAsFileTime

    api-ms-win-core-rtlsupport-l1-1-0.dll
             1800044B0 Import Address Table
             180005278 Import Name Table
                     0 time date stamp
                     0 Index of first forwarder reference

                          10 RtlVirtualUnwind
                           A RtlLookupFunctionEntry
                           2 RtlCaptureContext

    KERNEL32.dll
             1800043A8 Import Address Table
             180005170 Import Name Table
                     0 time date stamp
                     0 Index of first forwarder reference

                         651 lstrlenW

    USER32.dll
             1800043B8 Import Address Table
             180005180 Import Name Table
                     0 time date stamp
                     0 Index of first forwarder reference

                         25C LoadImageW
                         25A LoadIconW
                         2E1 RegisterClipboardFormatW
                         254 LoadBitmapW

  Summary

        2000 .data
        1000 .pdata
        2000 .rdata
        1000 .reloc
       32000 .rsrc
        3000 .text
