Microsoft (R) COFF/PE Dumper Version 14.29.30137.0
Copyright (C) Microsoft Corporation.  All rights reserved.


Dump of file C:\Windows\System32\cipher.exe

File Type: EXECUTABLE IMAGE

  Image has the following dependencies:

    ADVAPI32.dll
    KERNEL32.dll
    msvcrt.dll
    ntdll.dll
    RPCRT4.dll
    USER32.dll
    NTDSAPI.dll
    CRYPT32.dll
    bcrypt.dll
    EFSUTIL.dll
    FeClient.dll
    DSROLE.dll

  Image has the following delay load dependencies:

    SHELL32.dll
    edputil.dll

  Section contains the following imports:

    ADVAPI32.dll
             140009128 Import Address Table
             14000A730 Import Name Table
                     0 time date stamp
                     0 Index of first forwarder reference

                         10B EncryptFileW
                          DC CryptReleaseContext
                         299 RegQueryValueExW
                         1A9 LookupAccountSidW
                         2BE RemoveUsersFromEncryptedFile
                         28C RegOpenKeyExW
                         257 QueryUsersOnEncryptedFile
                          1C AddUsersToEncryptedFile
                          1D AddUsersToEncryptedFileEx
                          83 ConvertStringSidToSidW
                         246 QueryRecoveryAgentsOnEncryptedFile
                         10C EncryptedFileKeyInfo
                         12D FlushEfsCache
                         132 FreeEncryptionCertificateHashList
                         11A EqualSid
                          C2 CryptAcquireContextW
                         25B RegCloseKey
                         2F6 SetUserFileEncryptionKey
                         130 FreeEncryptedFileKeyInfo
                          EA DecryptFileW
                          D8 CryptGetUserKey
                          C8 CryptDestroyKey

    KERNEL32.dll
             1400092A0 Import Address Table
             14000A8A8 Import Name Table
                     0 time date stamp
                     0 Index of first forwarder reference

                         232 GetDiskFreeSpaceW
                         508 SetConsoleMode
                         123 DeviceIoControl
                         5D7 VirtualAlloc
                         4BE RemoveDirectoryW
                         524 SetErrorMode
                         531 SetFilePointer
                         51F SetEndOfFile
                         2BD GetProcessHeap
                         32D GetVolumePathNameW
                          CD CreateFileW
                         24E GetFileAttributesW
                         32B GetVolumeNameForVolumeMountPointW
                         231 GetDiskFreeSpaceExW
                         475 ReadConsoleW
                          88 CloseHandle
                         358 HeapSetInformation
                         219 GetCurrentDirectoryW
                         518 SetCurrentDirectoryW
                         188 FindFirstFileW
                         262 GetFullPathNameW
                         1A0 FindVolumeClose
                         5D6 VerifyVersionInfoW
                         2FD GetTempFileNameW
                         199 FindNextVolumeW
                         645 lstrcmpW
                         238 GetDriveTypeW
                         1A7 FlushFileBuffers
                         310 GetTickCount
                         2F2 GetSystemTimeAsFileTime
                         224 GetCurrentThreadId
                         220 GetCurrentProcessId
                         451 QueryPerformanceCounter
                         4CE ResolveDelayLoadedAPI
                         59C TerminateProcess
                         21F GetCurrentProcess
                         57D SetUnhandledExceptionFilter
                         5BE UnhandledExceptionFilter
                         58D Sleep
                         329 GetVolumeInformationW
                         449 QueryDosDeviceW
                          BC CreateDirectoryW
                         194 FindNextFileW
                         5DA VirtualFree
                         540 SetLastError
                         1E7 GetComputerNameW
                         18E FindFirstVolumeW
                         257 GetFileType
                         60F WideCharToMultiByte
                         5D2 VerSetConditionMask
                         280 GetModuleHandleW
                         3D5 LocalFree
                         2B7 GetProcAddress
                         622 WriteConsoleW
                         350 HeapAlloc
                         269 GetLastError
                         1AF FormatMessageW
                         204 GetConsoleMode
                         623 WriteFile
                         2DB GetStdHandle
                         110 DelayLoadFailureHook
                         651 lstrlenW
                         354 HeapFree
                         17D FindClose

    msvcrt.dll
             140009540 Import Address Table
             14000AB48 Import Name Table
                     0 time date stamp
                     0 Index of first forwarder reference

                          D2 _commode
                         4C2 strcmp
                         496 memset
                         492 memcpy
                          2F ?terminate@@YAXXZ
                         127 _fmode
                          57 __C_specific_handler
                         17D _initterm
                          90 __setusermatherr
                          C1 _cexit
                         10E _exit
                         432 exit
                          8E __set_app_type
                          9D __wgetmainargs
                          AE _amsg_exit
                          55 _XcptFilter
                         4EC towupper
                         394 _wcsnicmp
                         2A4 _putws
                         45B getchar
                         49D printf
                         501 wcschr
                         38A _wcsicmp
                         155 _get_osfhandle
                         369 _vsnwprintf
                          81 __iob_func
                         43E fgetws
                         502 wcscmp

    ntdll.dll
             140009628 Import Address Table
             14000AC30 Import Name Table
                     0 time date stamp
                     0 Index of first forwarder reference

                         2F2 RtlCaptureContext
                         4FD RtlNtStatusToDosError
                         4E8 RtlLookupFunctionEntry
                         627 RtlVirtualUnwind

    RPCRT4.dll
             1400094D0 Import Address Table
             14000AAD8 Import Name Table
                     0 time date stamp
                     0 Index of first forwarder reference

                         226 UuidToStringW
                         21D UuidCreate
                         214 RpcStringFreeW

    USER32.dll
             1400094F0 Import Address Table
             14000AAF8 Import Name Table
                     0 time date stamp
                     0 Index of first forwarder reference

                         28C MessageBoxW

    NTDSAPI.dll
             1400094A8 Import Address Table
             14000AAB0 Import Name Table
                     0 time date stamp
                     0 Index of first forwarder reference

                          24 DsFreeNameResultW
                          74 DsUnBindW
                          14 DsCrackNamesW
                           8 DsBindW

    CRYPT32.dll
             1400091E0 Import Address Table
             14000A7E8 Import Name Table
                     0 time date stamp
                     0 Index of first forwarder reference

                          47 CertGetEnhancedKeyUsage
                          40 CertFreeCertificateContext
                           4 CertAddCertificateContextToStore
                          2C CertEnumCertificatesInStore
                          C5 CryptQueryObject
                          12 CertCloseStore
                         123 PFXExportCertStoreEx
                          35 CertFindCertificateInStore
                          59 CertOpenStore
                          DF CryptStringToBinaryW
                          46 CertGetCertificateContextProperty
                          7D CryptBinaryToStringW

    bcrypt.dll
             140009500 Import Address Table
             14000AB08 Import Name Table
                     0 time date stamp
                     0 Index of first forwarder reference

                          1F BCryptGenerateSymmetricKey
                           2 BCryptCloseAlgorithmProvider
                          1D BCryptGenRandom
                          27 BCryptOpenAlgorithmProvider
                          21 BCryptGetProperty
                           E BCryptDestroyKey
                          12 BCryptEncrypt

    EFSUTIL.dll
             140009260 Import Address Table
             14000A868 Import Name Table
                     0 time date stamp
                     0 Index of first forwarder reference

                           C EfsUtilGetSmartcardProviderName
                           2 EfsUtilCreateSelfSignedCertificate
                           9 EfsUtilGetCurrentUserInformation

    FeClient.dll
             140009280 Import Address Table
             14000A888 Import Name Table
                     0 time date stamp
                     0 Index of first forwarder reference

                          28 EfsClientQueryProtectors
                          24 EfsClientFreeProtectorList
                          25 EfsClientGetEncryptedFileVersion

    DSROLE.dll
             140009248 Import Address Table
             14000A850 Import Name Table
                     0 time date stamp
                     0 Index of first forwarder reference

                           1 DsRoleGetPrimaryDomainInformation
                           0 DsRoleFreeMemory

  Section contains the following delay load imports:

    SHELL32.dll
              00000001 Characteristics
      000000014000C5F0 Address of HMODULE
      0000000140010000 Import Address Table
      000000014000A588 Import Name Table
      000000014000A5F8 Bound Import Name Table
      0000000000000000 Unload Import Name Table
                     0 time date stamp

                                    0000000140008D09       Ordinal   190
                                    0000000140008CF7    90 SHChangeNotifySuspendResume
                                    0000000140008C6C       Ordinal   155

    edputil.dll
              00000001 Characteristics
      000000014000C5F8 Address of HMODULE
      0000000140010020 Import Address Table
      000000014000A5A8 Import Name Table
      000000014000A618 Bound Import Name Table
      0000000000000000 Unload Import Name Table
                     0 time date stamp

                                    0000000140008D1B     8 EdpConvertProtectorToExternalId

  Summary

        3000 .data
        1000 .didat
        1000 .pdata
        3000 .rdata
        1000 .reloc
        1000 .rsrc
        8000 .text
