Microsoft (R) COFF/PE Dumper Version 14.29.30137.0
Copyright (C) Microsoft Corporation.  All rights reserved.


Dump of file C:\Windows\System32\gpscript.exe

File Type: EXECUTABLE IMAGE

  Image has the following dependencies:

    api-ms-win-core-file-l1-1-0.dll
    api-ms-win-core-registry-l1-1-0.dll
    api-ms-win-core-errorhandling-l1-1-0.dll
    api-ms-win-core-processthreads-l1-1-0.dll
    api-ms-win-core-processenvironment-l1-1-0.dll
    api-ms-win-core-synch-l1-1-0.dll
    api-ms-win-core-heap-l2-1-0.dll
    api-ms-win-core-sysinfo-l1-1-0.dll
    api-ms-win-core-handle-l1-1-0.dll
    api-ms-win-core-libraryloader-l1-2-0.dll
    api-ms-win-core-string-l1-1-0.dll
    api-ms-win-core-heap-l1-1-0.dll
    USER32.dll
    msvcrt.dll
    ntdll.dll
    api-ms-win-core-debug-l1-1-0.dll
    api-ms-win-security-base-l1-1-0.dll
    api-ms-win-security-sddl-l1-1-0.dll
    api-ms-win-core-synch-l1-2-0.dll
    api-ms-win-core-profile-l1-1-0.dll

  Section contains the following imports:

    api-ms-win-core-file-l1-1-0.dll
             140007C58 Import Address Table
             14000A9B0 Import Name Table
                     0 time date stamp
                     0 Index of first forwarder reference

                          5B WriteFile
                           6 CreateFileW
                          2B GetFileAttributesExW
                          55 SetFilePointer
                           1 CompareFileTime
                           3 CreateDirectoryW

    api-ms-win-core-registry-l1-1-0.dll
             140007D90 Import Address Table
             14000AAE8 Import Name Table
                     0 time date stamp
                     0 Index of first forwarder reference

                          1E RegOpenKeyExW
                          25 RegQueryValueExW
                          2E RegSetValueExW
                           0 RegCloseKey
                          21 RegQueryInfoKeyW
                          1C RegOpenCurrentUser

    api-ms-win-core-errorhandling-l1-1-0.dll
             140007C30 Import Address Table
             14000A988 Import Name Table
                     0 time date stamp
                     0 Index of first forwarder reference

                           F SetUnhandledExceptionFilter
                           D SetLastError
                           5 GetLastError
                          11 UnhandledExceptionFilter

    api-ms-win-core-processthreads-l1-1-0.dll
             140007D20 Import Address Table
             14000AA78 Import Name Table
                     0 time date stamp
                     0 Index of first forwarder reference

                           D GetCurrentProcessId
                          11 GetCurrentThreadId
                          20 GetStartupInfoW
                          4B SetThreadToken
                           C GetCurrentProcess
                          4E TerminateProcess
                           3 CreateProcessW
                          31 OpenProcessToken
                          10 GetCurrentThread
                          13 GetExitCodeProcess
                          33 OpenThreadToken

    api-ms-win-core-processenvironment-l1-1-0.dll
             140007CF8 Import Address Table
             14000AA50 Import Name Table
                     0 time date stamp
                     0 Index of first forwarder reference

                           1 ExpandEnvironmentStringsW
                          12 SetCurrentDirectoryW
                          15 SetEnvironmentVariableW
                           B GetEnvironmentVariableW

    api-ms-win-core-synch-l1-1-0.dll
             140007DD8 Import Address Table
             14000AB30 Import Name Table
                     0 time date stamp
                     0 Index of first forwarder reference

                           F DeleteCriticalSection
                          36 WaitForSingleObject
                          1A InitializeCriticalSectionEx

    api-ms-win-core-heap-l2-1-0.dll
             140007CB8 Import Address Table
             14000AA10 Import Name Table
                     0 time date stamp
                     0 Index of first forwarder reference

                           3 LocalFree
                           2 LocalAlloc

    api-ms-win-core-sysinfo-l1-1-0.dll
             140007E08 Import Address Table
             14000AB60 Import Name Table
                     0 time date stamp
                     0 Index of first forwarder reference

                           F GetSystemDirectoryW
                          16 GetSystemTimeAsFileTime
                          1A GetTickCount
                           5 GetLocalTime
                          13 GetSystemTime

    api-ms-win-core-handle-l1-1-0.dll
             140007C90 Import Address Table
             14000A9E8 Import Name Table
                     0 time date stamp
                     0 Index of first forwarder reference

                           0 CloseHandle
                           2 DuplicateHandle

    api-ms-win-core-libraryloader-l1-2-0.dll
             140007CD0 Import Address Table
             14000AA28 Import Name Table
                     0 time date stamp
                     0 Index of first forwarder reference

                          15 GetProcAddress
                          14 GetModuleHandleW
                           C FreeLibrary
                          18 LoadLibraryExW

    api-ms-win-core-string-l1-1-0.dll
             140007DC8 Import Address Table
             14000AB20 Import Name Table
                     0 time date stamp
                     0 Index of first forwarder reference

                           2 CompareStringW

    api-ms-win-core-heap-l1-1-0.dll
             140007CA8 Import Address Table
             14000AA00 Import Name Table
                     0 time date stamp
                     0 Index of first forwarder reference

                           A HeapSetInformation

    USER32.dll
             140007C08 Import Address Table
             14000A960 Import Name Table
                     0 time date stamp
                     0 Index of first forwarder reference

                         3C6 UpdatePerUserSystemParameters
                         1C7 GetSystemMetrics

    msvcrt.dll
             140007E68 Import Address Table
             14000ABC0 Import Name Table
                     0 time date stamp
                     0 Index of first forwarder reference

                          5B __CxxFrameHandler3
                           A ??0exception@@QEAA@AEBQEBD@Z
                          99 __wargv
                           B ??0exception@@QEAA@AEBQEBDH@Z
                          71 __argc
                         1D9 _itow
                         369 _vsnwprintf
                           C ??0exception@@QEAA@AEBV0@@Z
                          11 ??1exception@@UEAA@XZ
                          31 ?what@exception@@UEBAPEBDXZ
                          4B _CxxThrowException
                          14 ??3@YAXPEAX@Z
                         492 memcpy
                         496 memset
                         29E _purecall
                         1E6 _lock
                          12 ??1type_info@@UEAA@XZ
                         290 _onexit
                          7B __dllonexit
                          2F ?terminate@@YAXXZ
                         341 _unlock
                         127 _fmode
                         382 _wcmdln
                          57 __C_specific_handler
                         17D _initterm
                          90 __setusermatherr
                          C1 _cexit
                         10E _exit
                         432 exit
                          8E __set_app_type
                          9D __wgetmainargs
                          AE _amsg_exit
                         486 malloc
                         494 memmove
                          55 _XcptFilter
                          BF _callnewh
                          D2 _commode

    ntdll.dll
             140007F98 Import Address Table
             14000ACF0 Import Name Table
                     0 time date stamp
                     0 Index of first forwarder reference

                         628 RtlVirtualUnwind
                         4E9 RtlLookupFunctionEntry
                         2F3 RtlCaptureContext
                         331 RtlCopySid
                         4D2 RtlLengthSid

    api-ms-win-core-debug-l1-1-0.dll
             140007C20 Import Address Table
             14000A978 Import Name Table
                     0 time date stamp
                     0 Index of first forwarder reference

                           7 OutputDebugStringW

    api-ms-win-security-base-l1-1-0.dll
             140007E38 Import Address Table
             14000AB90 Import Name Table
                     0 time date stamp
                     0 Index of first forwarder reference

                          2C EqualSid
                          45 ImpersonateLoggedOnUser
                          42 GetTokenInformation

    api-ms-win-security-sddl-l1-1-0.dll
             140007E58 Import Address Table
             14000ABB0 Import Name Table
                     0 time date stamp
                     0 Index of first forwarder reference

                           1 ConvertSidToStringSidW

    api-ms-win-core-synch-l1-2-0.dll
             140007DF8 Import Address Table
             14000AB50 Import Name Table
                     0 time date stamp
                     0 Index of first forwarder reference

                          2D Sleep

    api-ms-win-core-profile-l1-1-0.dll
             140007D80 Import Address Table
             14000AAD8 Import Name Table
                     0 time date stamp
                     0 Index of first forwarder reference

                           0 QueryPerformanceCounter

  Summary

        2000 .data
        1000 .pdata
        5000 .rdata
        1000 .reloc
        1000 .rsrc
        6000 .text
