Microsoft (R) COFF/PE Dumper Version 14.29.30137.0
Copyright (C) Microsoft Corporation.  All rights reserved.


Dump of file C:\Windows\System32\mciseq.dll

File Type: DLL

  Image has the following dependencies:

    ntdll.dll
    api-ms-win-core-heap-l2-1-0.dll
    api-ms-win-core-libraryloader-l1-2-0.dll
    api-ms-win-mm-time-l1-1-0.dll
    api-ms-win-core-largeinteger-l1-1-0.dll
    api-ms-win-core-synch-l1-1-0.dll
    api-ms-win-core-synch-l1-2-0.dll
    api-ms-win-core-handle-l1-1-0.dll
    api-ms-win-core-profile-l1-1-0.dll
    api-ms-win-core-processthreads-l1-1-0.dll
    api-ms-win-core-sysinfo-l1-1-0.dll
    api-ms-win-core-errorhandling-l1-1-0.dll
    USER32.dll
    WINMM.dll

  Section contains the following exports for MCISEQ.dll

    00000000 characteristics
    F579D838 time date stamp
        0.00 version
           1 ordinal base
           1 number of functions
           1 number of names

    ordinal hint RVA      name

          1    0 00003150 DriverProc

  Section contains the following imports:

    ntdll.dll
             180007350 Import Address Table
             180007C50 Import Name Table
                     0 time date stamp
                     0 Index of first forwarder reference

                         4E8 RtlLookupFunctionEntry
                         627 RtlVirtualUnwind
                         2F2 RtlCaptureContext
                         939 memset

    api-ms-win-core-heap-l2-1-0.dll
             180007240 Import Address Table
             180007B40 Import Name Table
                     0 time date stamp
                     0 Index of first forwarder reference

                           B LocalLock
                           2 GlobalFree
                           A LocalFree
                           0 GlobalAlloc
                           8 LocalAlloc

    api-ms-win-core-libraryloader-l1-2-0.dll
             180007280 Import Address Table
             180007B80 Import Name Table
                     0 time date stamp
                     0 Index of first forwarder reference

                          1C LoadStringW
                           1 DisableThreadLibraryCalls

    api-ms-win-mm-time-l1-1-0.dll
             180007328 Import Address Table
             180007C28 Import Name Table
                     0 time date stamp
                     0 Index of first forwarder reference

                           0 timeBeginPeriod
                           4 timeGetTime
                           1 timeEndPeriod
                           2 timeGetDevCaps

    api-ms-win-core-largeinteger-l1-1-0.dll
             180007270 Import Address Table
             180007B70 Import Name Table
                     0 time date stamp
                     0 Index of first forwarder reference

                          45 MulDiv

    api-ms-win-core-synch-l1-1-0.dll
             1800072D0 Import Address Table
             180007BD0 Import Name Table
                     0 time date stamp
                     0 Index of first forwarder reference

                          1D LeaveCriticalSection
                          18 InitializeCriticalSection
                          11 EnterCriticalSection
                           F DeleteCriticalSection
                          36 WaitForSingleObject

    api-ms-win-core-synch-l1-2-0.dll
             180007300 Import Address Table
             180007C00 Import Name Table
                     0 time date stamp
                     0 Index of first forwarder reference

                          2D Sleep

    api-ms-win-core-handle-l1-1-0.dll
             180007230 Import Address Table
             180007B30 Import Name Table
                     0 time date stamp
                     0 Index of first forwarder reference

                           0 CloseHandle

    api-ms-win-core-profile-l1-1-0.dll
             1800072C0 Import Address Table
             180007BC0 Import Name Table
                     0 time date stamp
                     0 Index of first forwarder reference

                           0 QueryPerformanceCounter

    api-ms-win-core-processthreads-l1-1-0.dll
             180007298 Import Address Table
             180007B98 Import Name Table
                     0 time date stamp
                     0 Index of first forwarder reference

                          11 GetCurrentThreadId
                          4E TerminateProcess
                           C GetCurrentProcess
                           D GetCurrentProcessId

    api-ms-win-core-sysinfo-l1-1-0.dll
             180007310 Import Address Table
             180007C10 Import Name Table
                     0 time date stamp
                     0 Index of first forwarder reference

                          1A GetTickCount
                          16 GetSystemTimeAsFileTime

    api-ms-win-core-errorhandling-l1-1-0.dll
             180007218 Import Address Table
             180007B18 Import Name Table
                     0 time date stamp
                     0 Index of first forwarder reference

                          11 UnhandledExceptionFilter
                           F SetUnhandledExceptionFilter

    USER32.dll
             180007128 Import Address Table
             180007A28 Import Name Table
                     0 time date stamp
                     0 Index of first forwarder reference

                         145 GetDesktopWindow
                          BD DispatchMessageW
                         189 GetMessageW
                         2B2 PostThreadMessageW

    WINMM.dll
             180007150 Import Address Table
             180007A50 Import Name Table
                     0 time date stamp
                     0 Index of first forwarder reference

                          79 mmioRead
                          78 mmioOpenW
                           1 DefDriverProc
                          4A midiOutLongMsg
                          69 mmGetCurrentTask
                          6B mmTaskCreate
                          24 mciGetDriverData
                          50 midiOutShortMsg
                          41 midiOutCachePatches
                          51 midiOutUnprepareHeader
                          2D mciSetDriverData
                          1C mciDriverYield
                          1B mciDriverNotify
                          42 midiOutClose
                          8B timeKillEvent
                          4C midiOutOpen
                          48 midiOutGetNumDevs
                          8C timeSetEvent
                          70 mmioClose
                          6F mmioAscend
                          72 mmioDescend
                          4D midiOutPrepareHeader
                          40 midiOutCacheDrumPatches
                          7C mmioSeek

  Summary

        3000 .data
        1000 .pdata
        2000 .rdata
        1000 .reloc
        1000 .rsrc
        6000 .text
