Microsoft (R) COFF/PE Dumper Version 14.29.30137.0
Copyright (C) Microsoft Corporation.  All rights reserved.


Dump of file C:\Windows\System32\mountvol.exe

File Type: EXECUTABLE IMAGE

  Image has the following dependencies:

    msvcrt.dll
    api-ms-win-core-file-l1-1-0.dll
    api-ms-win-core-kernel32-legacy-l1-1-1.dll
    api-ms-win-core-errorhandling-l1-1-0.dll
    api-ms-win-core-processenvironment-l1-1-0.dll
    ntdll.dll
    api-ms-win-core-io-l1-1-0.dll
    api-ms-win-core-localization-l1-2-0.dll
    api-ms-win-core-heap-l2-1-0.dll
    api-ms-win-core-file-l1-2-0.dll
    api-ms-win-core-console-l1-1-0.dll
    api-ms-win-core-handle-l1-1-0.dll
    api-ms-win-core-heap-l1-1-0.dll
    api-ms-win-core-string-l1-1-0.dll
    api-ms-win-core-string-obsolete-l1-1-0.dll
    api-ms-win-core-synch-l1-2-0.dll
    api-ms-win-core-rtlsupport-l1-1-0.dll
    api-ms-win-core-processthreads-l1-1-0.dll
    api-ms-win-core-libraryloader-l1-2-0.dll
    api-ms-win-core-profile-l1-1-0.dll
    api-ms-win-core-sysinfo-l1-1-0.dll

  Section contains the following imports:

    msvcrt.dll
             140004320 Import Address Table
             140004CA0 Import Name Table
                     0 time date stamp
                     0 Index of first forwarder reference

                          D2 _commode
                         17D _initterm
                          2F ?terminate@@YAXXZ
                         127 _fmode
                         369 _vsnwprintf
                          7F __getmainargs
                          AE _amsg_exit
                          55 _XcptFilter
                          57 __C_specific_handler
                         10E _exit
                          8E __set_app_type
                          C1 _cexit
                         432 exit
                          90 __setusermatherr
                         492 memcpy

    api-ms-win-core-file-l1-1-0.dll
             140004170 Import Address Table
             140004AF0 Import Name Table
                     0 time date stamp
                     0 Index of first forwarder reference

                          16 FindFirstVolumeW
                          1D FindVolumeClose
                          5B WriteFile
                          48 QueryDosDeviceW
                           7 DefineDosDeviceW
                           A DeleteVolumeMountPointW
                          4D RemoveDirectoryW
                          1C FindNextVolumeW
                           6 CreateFileW

    api-ms-win-core-kernel32-legacy-l1-1-1.dll
             140004220 Import Address Table
             140004BA0 Import Name Table
                     0 time date stamp
                     0 Index of first forwarder reference

                          5C SetVolumeMountPointW
                          18 FindFirstVolumeMountPointW
                          1D FindVolumeMountPointClose
                          19 FindNextVolumeMountPointW

    api-ms-win-core-errorhandling-l1-1-0.dll
             140004140 Import Address Table
             140004AC0 Import Name Table
                     0 time date stamp
                     0 Index of first forwarder reference

                           D SetLastError
                           C SetErrorMode
                           5 GetLastError
                           F SetUnhandledExceptionFilter
                          11 UnhandledExceptionFilter

    api-ms-win-core-processenvironment-l1-1-0.dll
             140004270 Import Address Table
             140004BF0 Import Name Table
                     0 time date stamp
                     0 Index of first forwarder reference

                           C GetStdHandle

    ntdll.dll
             1400043A0 Import Address Table
             140004D20 Import Name Table
                     0 time date stamp
                     0 Index of first forwarder reference

                         1F8 NtQuerySystemInformation

    api-ms-win-core-io-l1-1-0.dll
             140004210 Import Address Table
             140004B90 Import Name Table
                     0 time date stamp
                     0 Index of first forwarder reference

                           4 DeviceIoControl

    api-ms-win-core-localization-l1-2-0.dll
             140004258 Import Address Table
             140004BD8 Import Name Table
                     0 time date stamp
                     0 Index of first forwarder reference

                           9 FormatMessageW
                          3F SetThreadUILanguage

    api-ms-win-core-heap-l2-1-0.dll
             1400041F8 Import Address Table
             140004B78 Import Name Table
                     0 time date stamp
                     0 Index of first forwarder reference

                           8 LocalAlloc
                           A LocalFree

    api-ms-win-core-file-l1-2-0.dll
             1400041C0 Import Address Table
             140004B40 Import Name Table
                     0 time date stamp
                     0 Index of first forwarder reference

                          44 GetVolumePathNamesForVolumeNameW
                          42 GetVolumeNameForVolumeMountPointW

    api-ms-win-core-console-l1-1-0.dll
             140004128 Import Address Table
             140004AA8 Import Name Table
                     0 time date stamp
                     0 Index of first forwarder reference

                          13 WriteConsoleW
                           6 GetConsoleMode

    api-ms-win-core-handle-l1-1-0.dll
             1400041D8 Import Address Table
             140004B58 Import Name Table
                     0 time date stamp
                     0 Index of first forwarder reference

                           0 CloseHandle

    api-ms-win-core-heap-l1-1-0.dll
             1400041E8 Import Address Table
             140004B68 Import Name Table
                     0 time date stamp
                     0 Index of first forwarder reference

                           A HeapSetInformation

    api-ms-win-core-string-l1-1-0.dll
             1400042D8 Import Address Table
             140004C58 Import Name Table
                     0 time date stamp
                     0 Index of first forwarder reference

                           7 WideCharToMultiByte

    api-ms-win-core-string-obsolete-l1-1-0.dll
             1400042E8 Import Address Table
             140004C68 Import Name Table
                     0 time date stamp
                     0 Index of first forwarder reference

                           3 lstrcmpW

    api-ms-win-core-synch-l1-2-0.dll
             1400042F8 Import Address Table
             140004C78 Import Name Table
                     0 time date stamp
                     0 Index of first forwarder reference

                          2D Sleep

    api-ms-win-core-rtlsupport-l1-1-0.dll
             1400042B8 Import Address Table
             140004C38 Import Name Table
                     0 time date stamp
                     0 Index of first forwarder reference

                         2F2 RtlCaptureContext
                         4E8 RtlLookupFunctionEntry
                         627 RtlVirtualUnwind

    api-ms-win-core-processthreads-l1-1-0.dll
             140004280 Import Address Table
             140004C00 Import Name Table
                     0 time date stamp
                     0 Index of first forwarder reference

                          11 GetCurrentThreadId
                          4E TerminateProcess
                           C GetCurrentProcess
                           D GetCurrentProcessId

    api-ms-win-core-libraryloader-l1-2-0.dll
             140004248 Import Address Table
             140004BC8 Import Name Table
                     0 time date stamp
                     0 Index of first forwarder reference

                          14 GetModuleHandleW

    api-ms-win-core-profile-l1-1-0.dll
             1400042A8 Import Address Table
             140004C28 Import Name Table
                     0 time date stamp
                     0 Index of first forwarder reference

                           0 QueryPerformanceCounter

    api-ms-win-core-sysinfo-l1-1-0.dll
             140004308 Import Address Table
             140004C88 Import Name Table
                     0 time date stamp
                     0 Index of first forwarder reference

                          1A GetTickCount
                          16 GetSystemTimeAsFileTime

  Summary

        1000 .data
        1000 .pdata
        2000 .rdata
        1000 .reloc
        1000 .rsrc
        3000 .text
