Microsoft (R) COFF/PE Dumper Version 14.29.30137.0
Copyright (C) Microsoft Corporation.  All rights reserved.


Dump of file C:\Windows\System32\mprext.dll

File Type: DLL

  Image has the following dependencies:

    ntdll.dll
    api-ms-win-core-libraryloader-l1-2-0.dll
    api-ms-win-core-errorhandling-l1-1-0.dll
    api-ms-win-core-localization-l1-2-0.dll
    api-ms-win-core-heap-l2-1-0.dll
    api-ms-win-core-synch-l1-1-0.dll
    api-ms-win-core-profile-l1-1-0.dll
    api-ms-win-core-processthreads-l1-1-0.dll
    api-ms-win-core-sysinfo-l1-1-0.dll
    api-ms-win-core-delayload-l1-1-1.dll
    api-ms-win-core-delayload-l1-1-0.dll

  Image has the following delay load dependencies:

    MPR.dll
    USER32.dll
    credui.dll
    NETPLWIZ.dll

  Section contains the following exports for MPREXT.dll

    00000000 characteristics
    1D7E882B time date stamp
        0.00 version
           1 ordinal base
          11 number of functions
          11 number of names

    ordinal hint RVA      name

          1    0 000011F0 DoBroadcastSystemMessageWorker
          2    1 000012C0 DoCommandLinePromptWorker
          3    2 00001320 DoPasswordDialogWorker
          4    3 00001460 DoProfileErrorDialogWorker
          5    4 00001790 ShowReconnectDialogEndWorker
          6    5 00001770 ShowReconnectDialogUIWorker
          7    6 00001700 ShowReconnectDialogWorker
          8    7 00001050 WNetConnectionDialog1WWorker
          9    8 00001170 WNetConnectionDialogWorker
         10    9 000010F0 WNetDisconnectDialog1WWorker
         11    A 000011D0 WNetDisconnectDialogWorker

  Section contains the following imports:

    ntdll.dll
             180003210 Import Address Table
             180003D98 Import Name Table
                     0 time date stamp
                     0 Index of first forwarder reference

                         8C2 __C_specific_handler
                         4E8 RtlLookupFunctionEntry
                         959 swprintf_s
                         966 wcscat_s
                         60E RtlUpcaseUnicodeChar
                         2F2 RtlCaptureContext
                         627 RtlVirtualUnwind
                         939 memset

    api-ms-win-core-libraryloader-l1-2-0.dll
             180003188 Import Address Table
             180003D10 Import Name Table
                     0 time date stamp
                     0 Index of first forwarder reference

                          1C LoadStringW
                           1 DisableThreadLibraryCalls

    api-ms-win-core-errorhandling-l1-1-0.dll
             180003148 Import Address Table
             180003CD0 Import Name Table
                     0 time date stamp
                     0 Index of first forwarder reference

                          11 UnhandledExceptionFilter
                           5 GetLastError
                           F SetUnhandledExceptionFilter
                           D SetLastError

    api-ms-win-core-localization-l1-2-0.dll
             1800031A0 Import Address Table
             180003D28 Import Name Table
                     0 time date stamp
                     0 Index of first forwarder reference

                           9 FormatMessageW

    api-ms-win-core-heap-l2-1-0.dll
             180003170 Import Address Table
             180003CF8 Import Name Table
                     0 time date stamp
                     0 Index of first forwarder reference

                           3 LocalFree
                           2 LocalAlloc

    api-ms-win-core-synch-l1-1-0.dll
             1800031E8 Import Address Table
             180003D70 Import Name Table
                     0 time date stamp
                     0 Index of first forwarder reference

                          29 SetEvent

    api-ms-win-core-profile-l1-1-0.dll
             1800031D8 Import Address Table
             180003D60 Import Name Table
                     0 time date stamp
                     0 Index of first forwarder reference

                           0 QueryPerformanceCounter

    api-ms-win-core-processthreads-l1-1-0.dll
             1800031B0 Import Address Table
             180003D38 Import Name Table
                     0 time date stamp
                     0 Index of first forwarder reference

                           C GetCurrentProcess
                          4E TerminateProcess
                          11 GetCurrentThreadId
                           D GetCurrentProcessId

    api-ms-win-core-sysinfo-l1-1-0.dll
             1800031F8 Import Address Table
             180003D80 Import Name Table
                     0 time date stamp
                     0 Index of first forwarder reference

                          1A GetTickCount
                          16 GetSystemTimeAsFileTime

    api-ms-win-core-delayload-l1-1-1.dll
             180003138 Import Address Table
             180003CC0 Import Name Table
                     0 time date stamp
                     0 Index of first forwarder reference

                           1 ResolveDelayLoadedAPI

    api-ms-win-core-delayload-l1-1-0.dll
             180003128 Import Address Table
             180003CB0 Import Name Table
                     0 time date stamp
                     0 Index of first forwarder reference

                           0 DelayLoadFailureHook

  Section contains the following delay load imports:

    MPR.dll
              00000001 Characteristics
      0000000180005580 Address of HMODULE
      0000000180007000 Import Address Table
      0000000180003790 Import Name Table
      0000000180003958 Bound Import Name Table
      0000000000000000 Unload Import Name Table
                     0 time date stamp

                                    0000000180001EA4    2D WNetGetConnectionW
                                    0000000180001E92    15 WNetCancelConnection2W
                                    0000000180001E07    32 WNetGetLastErrorW

    USER32.dll
              00000001 Characteristics
      0000000180005588 Address of HMODULE
      0000000180007038 Import Address Table
      00000001800037C8 Import Name Table
      0000000180003978 Bound Import Name Table
      0000000000000000 Unload Import Name Table
                     0 time date stamp

                                    0000000180001F65   2AF PostMessageW
                                    0000000180001F53    BA DialogBoxParamW
                                    0000000180001F41   28C MessageBoxW
                                    0000000180001F89   37B SetWindowPos
                                    0000000180001F9B   334 SetDlgItemTextW
                                    0000000180001F77    F2 EndDialog
                                    0000000180001EB6    17 BroadcastSystemMessageExW

    credui.dll
              00000001 Characteristics
      0000000180005590 Address of HMODULE
      0000000180007078 Import Address Table
      0000000180003808 Import Name Table
      00000001800039B8 Bound Import Name Table
      0000000000000000 Unload Import Name Table
                     0 time date stamp

                                    0000000180001FAD     3 CredUICmdLinePromptForCredentialsW
                                    0000000180002038     A CredUIPromptForCredentialsW

    NETPLWIZ.dll
              00000001 Characteristics
      0000000180005598 Address of HMODULE
      0000000180007020 Import Address Table
      00000001800037B0 Import Name Table
      00000001800039D0 Bound Import Name Table
      0000000000000000 Unload Import Name Table
                     0 time date stamp

                                    000000018000204A     5 SHDisconnectNetDrives
                                    00000001800020D5     4 NetPlacesWizardDoModal

  Summary

        1000 .data
        1000 .didat
        1000 .pdata
        2000 .rdata
        1000 .reloc
        1000 .rsrc
        2000 .text
