Microsoft (R) COFF/PE Dumper Version 14.29.30137.0
Copyright (C) Microsoft Corporation.  All rights reserved.


Dump of file C:\Windows\System32\ntlanui2.dll

File Type: DLL

  Image has the following dependencies:

    msvcrt.dll
    api-ms-win-core-libraryloader-l1-2-0.dll
    api-ms-win-core-libraryloader-l1-2-1.dll
    srvcli.dll
    netutils.dll
    wkscli.dll
    api-ms-win-core-localization-l1-2-0.dll
    api-ms-win-core-synch-l1-2-0.dll
    api-ms-win-core-rtlsupport-l1-1-0.dll
    api-ms-win-core-errorhandling-l1-1-0.dll
    api-ms-win-core-processthreads-l1-1-0.dll
    api-ms-win-core-profile-l1-1-0.dll
    api-ms-win-core-sysinfo-l1-1-0.dll
    ADVAPI32.dll
    COMCTL32.dll
    ntdll.dll
    ole32.dll
    USER32.dll

  Section contains the following exports for netobjs.dll

    00000000 characteristics
    4A15E97A time date stamp
        0.00 version
           1 ordinal base
           2 number of functions
           2 number of names

    ordinal hint RVA      name

          1    0 00001660 DllCanUnloadNow
          2    1 00001690 DllGetClassObject

  Section contains the following imports:

    msvcrt.dll
             1800032F8 Import Address Table
             180003CD8 Import Name Table
                     0 time date stamp
                     0 Index of first forwarder reference

                         501 wcschr
                          57 __C_specific_handler
                         17D _initterm
                          AE _amsg_exit
                          55 _XcptFilter
                          BF _callnewh
                         486 malloc
                         44C free
                         369 _vsnwprintf
                         492 memcpy
                         496 memset

    api-ms-win-core-libraryloader-l1-2-0.dll
             180003238 Import Address Table
             180003C18 Import Name Table
                     0 time date stamp
                     0 Index of first forwarder reference

                          1C LoadStringW
                           1 DisableThreadLibraryCalls
                          15 GetProcAddress

    api-ms-win-core-libraryloader-l1-2-1.dll
             180003258 Import Address Table
             180003C38 Import Name Table
                     0 time date stamp
                     0 Index of first forwarder reference

                          19 LoadLibraryW

    srvcli.dll
             180003390 Import Address Table
             180003D70 Import Name Table
                     0 time date stamp
                     0 Index of first forwarder reference

                          24 NetServerGetInfo

    netutils.dll
             180003358 Import Address Table
             180003D38 Import Name Table
                     0 time date stamp
                     0 Index of first forwarder reference

                           1 NetApiBufferFree
                           0 NetApiBufferAllocate

    wkscli.dll
             1800033A0 Import Address Table
             180003D80 Import Name Table
                     0 time date stamp
                     0 Index of first forwarder reference

                           E NetWkstaGetInfo

    api-ms-win-core-localization-l1-2-0.dll
             180003268 Import Address Table
             180003C48 Import Name Table
                     0 time date stamp
                     0 Index of first forwarder reference

                           9 FormatMessageW

    api-ms-win-core-synch-l1-2-0.dll
             1800032D0 Import Address Table
             180003CB0 Import Name Table
                     0 time date stamp
                     0 Index of first forwarder reference

                          2D Sleep

    api-ms-win-core-rtlsupport-l1-1-0.dll
             1800032B0 Import Address Table
             180003C90 Import Name Table
                     0 time date stamp
                     0 Index of first forwarder reference

                          10 RtlVirtualUnwind
                           2 RtlCaptureContext
                           A RtlLookupFunctionEntry

    api-ms-win-core-errorhandling-l1-1-0.dll
             180003220 Import Address Table
             180003C00 Import Name Table
                     0 time date stamp
                     0 Index of first forwarder reference

                          11 UnhandledExceptionFilter
                           F SetUnhandledExceptionFilter

    api-ms-win-core-processthreads-l1-1-0.dll
             180003278 Import Address Table
             180003C58 Import Name Table
                     0 time date stamp
                     0 Index of first forwarder reference

                          11 GetCurrentThreadId
                          4E TerminateProcess
                           D GetCurrentProcessId
                           C GetCurrentProcess

    api-ms-win-core-profile-l1-1-0.dll
             1800032A0 Import Address Table
             180003C80 Import Name Table
                     0 time date stamp
                     0 Index of first forwarder reference

                           0 QueryPerformanceCounter

    api-ms-win-core-sysinfo-l1-1-0.dll
             1800032E0 Import Address Table
             180003CC0 Import Name Table
                     0 time date stamp
                     0 Index of first forwarder reference

                          16 GetSystemTimeAsFileTime
                          1A GetTickCount

    ADVAPI32.dll
             180003198 Import Address Table
             180003B78 Import Name Table
                     0 time date stamp
                     0 Index of first forwarder reference

                         1E0 LsaQueryInformationPolicy
                         1B5 LsaClose
                         1C3 LsaFreeMemory
                         1D7 LsaOpenPolicy

    COMCTL32.dll
             1800031C0 Import Address Table
             180003BA0 Import Name Table
                     0 time date stamp
                     0 Index of first forwarder reference

                             Ordinal    17
                           9 CreatePropertySheetPageW
                          31 DestroyPropertySheetPage

    ntdll.dll
             180003370 Import Address Table
             180003D50 Import Name Table
                     0 time date stamp
                     0 Index of first forwarder reference

                         46F RtlInitUnicodeStringEx

    ole32.dll
             180003380 Import Address Table
             180003D60 Import Name Table
                     0 time date stamp
                     0 Index of first forwarder reference

                         1D9 ReleaseStgMedium

    USER32.dll
             1800031E0 Import Address Table
             180003BC0 Import Name Table
                     0 time date stamp
                     0 Index of first forwarder reference

                         2E1 RegisterClipboardFormatW
                         378 SetWindowLongPtrW
                         258 LoadCursorW
                         1E8 GetWindowLongPtrW
                         334 SetDlgItemTextW
                         328 SetCursor
                         28C MessageBoxW

  Summary

        1000 .data
        1000 .pdata
        2000 .rdata
        1000 .reloc
        2000 .rsrc
        2000 .text
