Microsoft (R) COFF/PE Dumper Version 14.29.30137.0
Copyright (C) Microsoft Corporation.  All rights reserved.


Dump of file C:\Windows\System32\qwinsta.exe

File Type: EXECUTABLE IMAGE

  Image has the following dependencies:

    WINSTA.dll
    UTILDLL.dll
    USER32.dll
    KERNEL32.dll
    msvcrt.dll

  Section contains the following imports:

    WINSTA.dll
             140006278 Import Address Table
             1400073E8 Import Name Table
                     0 time date stamp
                     0 Index of first forwarder reference

                          5E WinStationOpenServerW
                          27 WinStationEnumerateContainerSessions
                          2B WinStationEnumerateW
                          31 WinStationFreeMemory
                          5D WinStationOpenServerExW
                          38 WinStationGetAllSessionsEx
                          4C WinStationGetTermSrvCountersValue
                          2F WinStationFreeEXECENVDATAEX
                          65 WinStationQueryInformationW

    UTILDLL.dll
             140006260 Import Address Table
             1400073D0 Import Name Table
                     0 time date stamp
                     0 Index of first forwarder reference

                          1C StrConnectState
                          1B StrAsyncConnectState

    USER32.dll
             140006250 Import Address Table
             1400073C0 Import Name Table
                     0 time date stamp
                     0 Index of first forwarder reference

                         267 LoadStringW

    KERNEL32.dll
             140006128 Import Address Table
             140007298 Import Name Table
                     0 time date stamp
                     0 Index of first forwarder reference

                         4D7 RtlLookupFunctionEntry
                         5B9 UnhandledExceptionFilter
                         4D0 RtlCaptureContext
                         222 GetCurrentThreadId
                         588 Sleep
                         578 SetUnhandledExceptionFilter
                         4DE RtlVirtualUnwind
                         2F0 GetSystemTimeAsFileTime
                         21D GetCurrentProcess
                         597 TerminateProcess
                         206 GetConsoleOutputCP
                         56D SetThreadUILanguage
                         267 GetLastError
                         356 HeapSetInformation
                         60A WideCharToMultiByte
                         53C SetLastError
                         2D9 GetStdHandle
                         3F3 MultiByteToWideChar
                         1AD FormatMessageW
                         3C8 LoadLibraryW
                         61D WriteConsoleW
                         27E GetModuleHandleW
                         1B1 FreeLibrary
                         255 GetFileType
                         1DD GetCommandLineW
                         3CE LocalAlloc
                         3D3 LocalFree
                         5CD VerSetConditionMask
                         5D1 VerifyVersionInfoW
                         186 FindFirstFileW
                         192 FindNextFileW
                         17B FindClose
                         24C GetFileAttributesW
                         44D QueryPerformanceCounter
                         21E GetCurrentProcessId
                         30E GetTickCount

    msvcrt.dll
             1400062C8 Import Address Table
             140007438 Import Name Table
                     0 time date stamp
                     0 Index of first forwarder reference

                         3EA _wsetlocale
                         338 _ultoa
                         4FA vswprintf_s
                         501 wcschr
                         44C free
                         4F2 vfwprintf
                         455 fwprintf
                         486 malloc
                         518 wcstol
                         51B wcstoul
                         394 _wcsnicmp
                         473 iswdigit
                         385 _wcsdup
                          55 _XcptFilter
                          AE _amsg_exit
                          7F __getmainargs
                          8E __set_app_type
                         432 exit
                         10E _exit
                          C1 _cexit
                          90 __setusermatherr
                         17D _initterm
                          57 __C_specific_handler
                         127 _fmode
                          D2 _commode
                          2F ?terminate@@YAXXZ
                         445 fprintf
                         38E _wcslwr
                         500 wcscat_s
                         505 wcscpy_s
                         2D7 _snwprintf_s
                         439 fflush
                         520 wprintf
                          81 __iob_func
                         492 memcpy
                         494 memmove
                         496 memset
                         4DC swprintf_s
                         4B1 setlocale
                         502 wcscmp

  Summary

        6000 .data
        1000 .pdata
        2000 .rdata
        1000 .reloc
        1000 .rsrc
        5000 .text
