Microsoft (R) COFF/PE Dumper Version 14.29.30137.0
Copyright (C) Microsoft Corporation.  All rights reserved.


Dump of file C:\Windows\System32\rdpudd.dll

File Type: DLL

  Image has the following dependencies:

    WIN32K.SYS
    ntoskrnl.exe

  Section contains the following imports:

    WIN32K.SYS
             1C0018000 Import Address Table
             1C0018228 Import Name Table
                     0 time date stamp
                     0 Index of first forwarder reference

                          14 EngBugCheckEx
                          12 EngAssociateSurface
                          32 EngDeletePalette
                          37 EngDeleteSurface
                          47 EngFreeMem
                          A0 EngUnlockSurface
                          6B EngLockSurface
                           D EngAllocMem
                          21 EngCreateDeviceSurface
                          1E EngCreateBitmap
                          39 EngDeviceIoControl
                          4E EngGetCurrentThreadId
                          4D EngGetCurrentProcessId
                          25 EngCreatePalette
                          97 EngStrokePath
                          99 EngTextOut
                          13 EngBitBlt
                          1C EngCopyBits
                          BD PATHOBJ_bEnum
                          C4 PATHOBJ_vGetBounds
                          C2 PATHOBJ_vEnumStart
                          F9 XLATEOBJ_iXlate
                          82 EngQueryPerformanceCounter
                           6 CLIPOBJ_cEnumStart
                           5 CLIPOBJ_bEnum
                          83 EngQueryPerformanceFrequency
                          C5 RtlAnsiCharToUnicodeChar

    ntoskrnl.exe
             1C00180E0 Import Address Table
             1C0018308 Import Name Table
                     0 time date stamp
                     0 Index of first forwarder reference

                         AE3 ZwOpenProcessTokenEx
                         B09 ZwQueryInformationToken
                         A8C ZwClose
                         AE6 ZwOpenSection
                         88B RtlInitializeSid
                         8D8 RtlMapGenericMask
                         945 RtlSubAuthoritySid
                         931 RtlSetDaclSecurityDescriptor
                         5CE MmUnmapViewInSystemSpace
                         33D IoGetFileObjectGenericMapping
                         530 KeWaitForMultipleObjects
                         675 ObfDereferenceObject
                         AA2 ZwCreateSection
                         5A5 MmMapViewInSystemSpace
                         882 RtlInitUnicodeString
                         335 IoGetDeviceObjectPointer
                         8CB RtlLengthSid
                         8C9 RtlLengthRequiredSid
                         796 RtlAddAccessAllowedAce
                         507 KeSetEvent
                         665 ObReferenceObjectByHandle
                         6F0 PsGetCurrentProcessSessionId
                          A3 ExAllocatePoolWithTag
                         7E2 RtlCreateAcl
                          CA ExFreePoolWithTag
                         7E9 RtlCreateSecurityDescriptor
                         9BB SeExports
                         2FB IoCreateSynchronizationEvent
                         AE1 ZwOpenProcess
                         8D2 RtlLookupElementGenericTableAvl

  Summary

        3000 .data
        1000 .idata
        1000 .pdata
        3000 .rdata
        1000 .reloc
        1000 .rsrc
       10000 .text
        1000 GFIDS
