Microsoft (R) COFF/PE Dumper Version 14.29.30137.0
Copyright (C) Microsoft Corporation.  All rights reserved.


Dump of file C:\Windows\System32\wininetlui.dll

File Type: DLL

  Image has the following dependencies:

    msvcrt.dll
    api-ms-win-eventing-classicprovider-l1-1-0.dll
    api-ms-win-core-libraryloader-l1-2-0.dll
    api-ms-win-core-com-l1-1-0.dll
    OLEAUT32.dll
    api-ms-win-core-localization-l1-2-0.dll
    api-ms-win-core-timezone-l1-1-0.dll
    api-ms-win-core-datetime-l1-1-0.dll
    api-ms-win-core-synch-l1-2-0.dll
    api-ms-win-core-rtlsupport-l1-1-0.dll
    api-ms-win-core-errorhandling-l1-1-0.dll
    api-ms-win-core-processthreads-l1-1-0.dll
    api-ms-win-core-profile-l1-1-0.dll
    api-ms-win-core-sysinfo-l1-1-0.dll
    api-ms-win-core-delayload-l1-1-1.dll
    api-ms-win-core-delayload-l1-1-0.dll

  Image has the following delay load dependencies:

    WININET.dll
    USER32.dll
    GDI32.dll
    SHLWAPI.dll

  Section contains the following exports for WININETLUI.dll

    00000000 characteristics
    5195B97C time date stamp
        0.00 version
           1 ordinal base
           1 number of functions
           1 number of names

    ordinal hint RVA      name

          1    0 00001120 InternetErrorDlgEx

  Section contains the following imports:

    msvcrt.dll
             1800054E0 Import Address Table
             180006670 Import Name Table
                     0 time date stamp
                     0 Index of first forwarder reference

                         369 _vsnwprintf
                         486 malloc
                          57 __C_specific_handler
                         44C free
                          AE _amsg_exit
                          55 _XcptFilter
                         17D _initterm
                         496 memset

    api-ms-win-eventing-classicprovider-l1-1-0.dll
             1800054D0 Import Address Table
             180006660 Import Name Table
                     0 time date stamp
                     0 Index of first forwarder reference

                           6 TraceMessageVa

    api-ms-win-core-libraryloader-l1-2-0.dll
             180005420 Import Address Table
             1800065B0 Import Name Table
                     0 time date stamp
                     0 Index of first forwarder reference

                          1C LoadStringW

    api-ms-win-core-com-l1-1-0.dll
             1800053C0 Import Address Table
             180006550 Import Name Table
                     0 time date stamp
                     0 Index of first forwarder reference

                           9 CoCreateInstance

    OLEAUT32.dll
             1800053A8 Import Address Table
             180006538 Import Name Table
                     0 time date stamp
                     0 Index of first forwarder reference

                             Ordinal     6
                             Ordinal     2

    api-ms-win-core-localization-l1-2-0.dll
             180005430 Import Address Table
             1800065C0 Import Name Table
                     0 time date stamp
                     0 Index of first forwarder reference

                          23 GetUserDefaultLCID

    api-ms-win-core-timezone-l1-1-0.dll
             1800054C0 Import Address Table
             180006650 Import Name Table
                     0 time date stamp
                     0 Index of first forwarder reference

                           1 FileTimeToSystemTime

    api-ms-win-core-datetime-l1-1-0.dll
             1800053D0 Import Address Table
             180006560 Import Name Table
                     0 time date stamp
                     0 Index of first forwarder reference

                           6 GetTimeFormatW
                           2 GetDateFormatW

    api-ms-win-core-synch-l1-2-0.dll
             180005498 Import Address Table
             180006628 Import Name Table
                     0 time date stamp
                     0 Index of first forwarder reference

                          2D Sleep

    api-ms-win-core-rtlsupport-l1-1-0.dll
             180005478 Import Address Table
             180006608 Import Name Table
                     0 time date stamp
                     0 Index of first forwarder reference

                           2 RtlCaptureContext
                           A RtlLookupFunctionEntry
                          10 RtlVirtualUnwind

    api-ms-win-core-errorhandling-l1-1-0.dll
             180005408 Import Address Table
             180006598 Import Name Table
                     0 time date stamp
                     0 Index of first forwarder reference

                          11 UnhandledExceptionFilter
                           F SetUnhandledExceptionFilter

    api-ms-win-core-processthreads-l1-1-0.dll
             180005440 Import Address Table
             1800065D0 Import Name Table
                     0 time date stamp
                     0 Index of first forwarder reference

                          11 GetCurrentThreadId
                           D GetCurrentProcessId
                          4E TerminateProcess
                           C GetCurrentProcess

    api-ms-win-core-profile-l1-1-0.dll
             180005468 Import Address Table
             1800065F8 Import Name Table
                     0 time date stamp
                     0 Index of first forwarder reference

                           0 QueryPerformanceCounter

    api-ms-win-core-sysinfo-l1-1-0.dll
             1800054A8 Import Address Table
             180006638 Import Name Table
                     0 time date stamp
                     0 Index of first forwarder reference

                          16 GetSystemTimeAsFileTime
                          1A GetTickCount

    api-ms-win-core-delayload-l1-1-1.dll
             1800053F8 Import Address Table
             180006588 Import Name Table
                     0 time date stamp
                     0 Index of first forwarder reference

                           1 ResolveDelayLoadedAPI

    api-ms-win-core-delayload-l1-1-0.dll
             1800053E8 Import Address Table
             180006578 Import Name Table
                     0 time date stamp
                     0 Index of first forwarder reference

                           0 DelayLoadFailureHook

  Section contains the following delay load imports:

    WININET.dll
              00000001 Characteristics
      00000001800075B0 Address of HMODULE
      0000000180009100 Import Address Table
      0000000180006080 Import Name Table
      0000000180006280 Bound Import Name Table
      0000000000000000 Unload Import Name Table
                     0 time date stamp

                                    0000000180002DC6   10E ShowSecurityInfo

    USER32.dll
              00000001 Characteristics
      00000001800075B8 Address of HMODULE
      0000000180009030 Import Address Table
      0000000180005FB0 Import Name Table
      0000000180006290 Bound Import Name Table
      0000000000000000 Unload Import Name Table
                     0 time date stamp

                                    0000000180002F00   28C MessageBoxW
                                    0000000180002F12    EF EnableWindow
                                    0000000180002F24   25C LoadImageW
                                    0000000180002F36   338 SetForegroundWindow
                                    0000000180002F48    BA DialogBoxParamW
                                    0000000180002F5A   377 SetWindowLongPtrA
                                    0000000180002F6C   1E7 GetWindowLongPtrA
                                    0000000180002F7E   14C GetDlgItem
                                    0000000180002F90   259 LoadIconA
                                    0000000180002EEE   247 IsWindow
                                    0000000180002FB4   30E SendDlgItemMessageA
                                    0000000180002FC6   337 SetFocus
                                    0000000180002FD8   232 IsDlgButtonChecked
                                    0000000180002FEA   334 SetDlgItemTextW
                                    0000000180002FFC    B1 DestroyIcon
                                    000000018000300E   380 SetWindowTextW
                                    0000000180003020    F2 EndDialog
                                    0000000180003032   2AE PostMessageA
                                    0000000180003044   37B SetWindowPos
                                    0000000180003056   1F0 GetWindowRect
                                    0000000180003068   1DB GetWindow
                                    000000018000307A   25B LoadImageA
                                    0000000180002EDC   368 SetThreadDpiAwarenessContext
                                    0000000180002E51   145 GetDesktopWindow
                                    0000000180002FA2   313 SendMessageA

    GDI32.dll
              00000001 Characteristics
      00000001800075C0 Address of HMODULE
      0000000180009000 Import Address Table
      0000000180005F80 Import Name Table
      0000000180006360 Bound Import Name Table
      0000000000000000 Unload Import Name Table
                     0 time date stamp

                                    000000018000308C    43 CreateFontIndirectW
                                    0000000180003129   2AD GetObjectW
                                    0000000180003117   183 DeleteObject

    SHLWAPI.dll
              00000001 Characteristics
      00000001800075C8 Address of HMODULE
      0000000180009020 Import Address Table
      0000000180005FA0 Import Name Table
      0000000180006380 Bound Import Name Table
      0000000000000000 Unload Import Name Table
                     0 time date stamp

                                    000000018000313B       Ordinal   215

  Summary

        1000 .data
        1000 .didat
        1000 .pdata
        2000 .rdata
        1000 .reloc
        C000 .rsrc
        3000 .text
        1000 .wpp_sf
