Microsoft (R) COFF/PE Dumper Version 14.29.30137.0
Copyright (C) Microsoft Corporation.  All rights reserved.


Dump of file C:\Windows\WinSxS\amd64_microsoft-windows-kernelstreaming_31bf3856ad364e35_10.0.19041.2193_none_cc54ace54b0a51ce\mskssrv.sys

File Type: EXECUTABLE IMAGE

  Image has the following dependencies:

    ntoskrnl.exe
    ks.sys

  Section contains the following imports:

    ntoskrnl.exe
             1C0007090 Import Address Table
             1C0007338 Import Name Table
                     0 time date stamp
                     0 Index of first forwarder reference

                          EA MmMapLockedPagesSpecifyCache
                          A3 IofCompleteRequest
                         16B ZwClose
                         180 ZwSetValueKey
                         12E RtlCompareMemory
                          B3 KeInitializeMutex
                          C5 KeReleaseMutex
                          D8 KeWaitForSingleObject
                          FE ObReferenceObjectByPointer
                         188 _purecall
                          F4 MmUnlockPages
                          D0 KeSetEvent
                          F9 NtClose
                          F6 MmUnmapLockedPages
                          1C ExEventObjectType
                          48 IoAllocateWorkItem
                          67 IoGetCurrentProcess
                          65 IoFreeWorkItem
                          7A IoQueueWorkItem
                          1E ExFreePoolWithTag
                         97B RtlValidSid
                         901 RtlQueryFeatureConfiguration
                         B1D ZwQueryWnfStateData
                         8CB RtlLengthSid
                         8E1 RtlNotifyFeatureUsage
                         919 RtlRegisterFeatureConfigurationChangeNotification
                         902 RtlQueryFeatureConfigurationChangeStamp
                         96A RtlUnregisterFeatureConfigurationChangeNotification
                         B63 ZwUpdateWnfStateData
                          5E DbgPrintEx
                         6EF PsGetCurrentProcessId
                         712 PsGetProcessId
                         654 ObDuplicateObject
                         660 ObOpenObjectByPointer
                         12B ExSetTimer
                          B6 ExDeleteTimer
                          A5 ExAllocateTimer
                          A8 ExCancelTimer
                         51E KeStackAttachProcess
                         52D KeUnstackDetachProcess
                         17D ZwQueryValueKey
                          52 IoCreateDevice
                          15 ExAllocatePoolWithTag
                          53 IoCreateFile
                          64 IoFreeMdl
                          1D ExFreePool
                          FD ObReferenceObjectByHandle
                          60 IoFileObjectType
                          4A IoAttachDeviceToDeviceStack
                          5C IoDeleteDevice
                          78 IoOpenDeviceInterfaceRegistryKey
                         147 RtlInitUnicodeString
                          47 IoAllocateMdl
                         101 ObfDereferenceObject
                          ED MmProbeAndLockPages
                         183 __C_specific_handler

    ks.sys
             1C0007000 Import Address Table
             1C00072A8 Import Name Table
                     0 time date stamp
                     0 Index of first forwarder reference

                          34 KsDefaultDispatchPnp
                          C5 KsSetMajorFunctionHandler
                          36 KsDefaultForwardIrp
                          35 KsDefaultDispatchPower
                          5C KsFreeDeviceHeader
                          61 KsFreeObjectHeader
                          A9 KsQueryDevicePnpObject
                          20 KsAllocateObjectHeader
                          A6 KsPropertyHandler
                          DC KsUpdateCameraStreamingConsent
                          21 KsCacheMedium
                          80 KsIsCurrentProcessFrameServer
                          B1 KsReferenceSoftwareBusObject
                          C3 KsSetDevicePnpAndBaseObject
                          1C KsAllocateDeviceHeader
                          38 KsDereferenceSoftwareBusObject
                          D7 KsSynchronousIoControlDevice

  Summary

        1000 .data
        1000 .guids
        1000 .idata
        1000 .pdata
        1000 .rdata
        1000 .reloc
        1000 .rsrc
        3000 .text
        1000 GFIDS
        1000 INIT
        5000 PAGE
