Microsoft (R) COFF/PE Dumper Version 14.29.30137.0
Copyright (C) Microsoft Corporation.  All rights reserved.


Dump of file C:\Windows\WinSxS\amd64_microsoft-windows-filepicker.appxmain_31bf3856ad364e35_10.0.19041.1023_none_374973298940e35c\FilePicker.exe

File Type: EXECUTABLE IMAGE

  Image has the following dependencies:

    ext-ms-win-session-usermgr-l1-1-0.dll
    api-ms-win-core-debug-l1-1-0.dll
    api-ms-win-core-processthreads-l1-1-0.dll
    api-ms-win-core-localization-l1-2-0.dll
    api-ms-win-eventing-provider-l1-1-0.dll
    api-ms-win-core-heap-l1-1-0.dll
    api-ms-win-core-synch-l1-1-0.dll
    api-ms-win-core-synch-l1-2-0.dll
    api-ms-win-core-errorhandling-l1-1-0.dll
    api-ms-win-core-string-l1-1-0.dll
    api-ms-win-core-libraryloader-l1-2-0.dll
    api-ms-win-core-threadpool-l1-2-0.dll
    api-ms-win-core-handle-l1-1-0.dll
    ntdll.dll
    api-ms-win-security-base-l1-1-0.dll
    api-ms-win-security-base-l1-2-0.dll
    api-ms-win-core-com-l1-1-0.dll
    wincorlib.DLL
    msvcrt.dll
    api-ms-win-core-winrt-error-l1-1-0.dll
    api-ms-win-core-winrt-error-l1-1-1.dll
    api-ms-win-core-winrt-string-l1-1-0.dll
    api-ms-win-core-util-l1-1-0.dll
    api-ms-win-core-profile-l1-1-0.dll
    api-ms-win-core-sysinfo-l1-1-0.dll

  Section contains the following imports:

    ext-ms-win-session-usermgr-l1-1-0.dll
             140092350 Import Address Table
             1400D6A10 Import Name Table
                     0 time date stamp
                     0 Index of first forwarder reference

                          1C UMgrQueryUserToken

    api-ms-win-core-debug-l1-1-0.dll
             140092040 Import Address Table
             1400D6700 Import Name Table
                     0 time date stamp
                     0 Index of first forwarder reference

                           7 OutputDebugStringW
                           5 IsDebuggerPresent
                           4 DebugBreak

    api-ms-win-core-processthreads-l1-1-0.dll
             1400920F0 Import Address Table
             1400D67B0 Import Name Table
                     0 time date stamp
                     0 Index of first forwarder reference

                          4F TerminateProcess
                          20 GetStartupInfoW
                          11 GetCurrentThreadId
                           C GetCurrentProcess
                           D GetCurrentProcessId

    api-ms-win-core-localization-l1-2-0.dll
             1400920E0 Import Address Table
             1400D67A0 Import Name Table
                     0 time date stamp
                     0 Index of first forwarder reference

                           9 FormatMessageW

    api-ms-win-eventing-provider-l1-1-0.dll
             140092300 Import Address Table
             1400D69C0 Import Name Table
                     0 time date stamp
                     0 Index of first forwarder reference

                           9 EventWriteTransfer
                           5 EventUnregister
                           4 EventSetInformation
                           3 EventRegister
                           0 EventActivityIdControl

    api-ms-win-core-heap-l1-1-0.dll
             140092098 Import Address Table
             1400D6758 Import Name Table
                     0 time date stamp
                     0 Index of first forwarder reference

                           0 GetProcessHeap
                           6 HeapFree
                           2 HeapAlloc

    api-ms-win-core-synch-l1-1-0.dll
             140092158 Import Address Table
             1400D6818 Import Name Table
                     0 time date stamp
                     0 Index of first forwarder reference

                           F DeleteCriticalSection
                           1 AcquireSRWLockShared
                           5 CreateEventExW
                           B CreateSemaphoreExW
                           9 CreateMutexExW
                          11 EnterCriticalSection
                          27 ResetEvent
                           6 CreateEventW
                          25 ReleaseSRWLockShared
                          26 ReleaseSemaphore
                          21 OpenSemaphoreW
                           0 AcquireSRWLockExclusive
                          37 WaitForSingleObjectEx
                          18 InitializeCriticalSection
                          29 SetEvent
                          23 ReleaseMutex
                          36 WaitForSingleObject
                          1A InitializeCriticalSectionEx
                          1D LeaveCriticalSection
                          24 ReleaseSRWLockExclusive

    api-ms-win-core-synch-l1-2-0.dll
             140092200 Import Address Table
             1400D68C0 Import Name Table
                     0 time date stamp
                     0 Index of first forwarder reference

                          13 InitOnceBeginInitialize
                          15 InitOnceExecuteOnce
                          2D Sleep
                          14 InitOnceComplete

    api-ms-win-core-errorhandling-l1-1-0.dll
             140092060 Import Address Table
             1400D6720 Import Name Table
                     0 time date stamp
                     0 Index of first forwarder reference

                           D SetLastError
                           5 GetLastError
                          11 UnhandledExceptionFilter
                           F SetUnhandledExceptionFilter

    api-ms-win-core-string-l1-1-0.dll
             140092130 Import Address Table
             1400D67F0 Import Name Table
                     0 time date stamp
                     0 Index of first forwarder reference

                           6 MultiByteToWideChar
                           1 CompareStringOrdinal
                           5 GetStringTypeW
                           7 WideCharToMultiByte

    api-ms-win-core-libraryloader-l1-2-0.dll
             1400920B8 Import Address Table
             1400D6778 Import Name Table
                     0 time date stamp
                     0 Index of first forwarder reference

                          15 GetProcAddress
                          14 GetModuleHandleW
                           F GetModuleFileNameA
                          13 GetModuleHandleExW

    api-ms-win-core-threadpool-l1-2-0.dll
             140092240 Import Address Table
             1400D6900 Import Name Table
                     0 time date stamp
                     0 Index of first forwarder reference

                           C CreateThreadpoolTimer
                          22 WaitForThreadpoolTimerCallbacks
                           6 CloseThreadpoolTimer
                          1A SetThreadpoolTimer

    api-ms-win-core-handle-l1-1-0.dll
             140092088 Import Address Table
             1400D6748 Import Name Table
                     0 time date stamp
                     0 Index of first forwarder reference

                           0 CloseHandle

    ntdll.dll
             140092598 Import Address Table
             1400D6C58 Import Name Table
                     0 time date stamp
                     0 Index of first forwarder reference

                         2F3 RtlCaptureContext
                         4EA RtlLookupFunctionEntry
                         629 RtlVirtualUnwind
                         415 RtlGetDeviceFamilyInfoEnum
                         201 NtQueryWnfStateData

    api-ms-win-security-base-l1-1-0.dll
             140092330 Import Address Table
             1400D69F0 Import Name Table
                     0 time date stamp
                     0 Index of first forwarder reference

                          23 CreateWellKnownSid

    api-ms-win-security-base-l1-2-0.dll
             140092340 Import Address Table
             1400D6A00 Import Name Table
                     0 time date stamp
                     0 Index of first forwarder reference

                          1C CheckTokenMembershipEx

    api-ms-win-core-com-l1-1-0.dll
             140092000 Import Address Table
             1400D66C0 Import Name Table
                     0 time date stamp
                     0 Index of first forwarder reference

                           7 CoCreateFreeThreadedMarshaler
                          21 CoGetObjectContext
                          42 CoTaskMemAlloc
                          43 CoTaskMemFree
                          15 CoGetApartmentType
                          1E CoGetInterfaceAndReleaseStream
                          2E CoMarshalInterThreadInterfaceInStream

    wincorlib.DLL
             1400925C8 Import Address Table
             1400D6C88 Import Name Table
                     0 time date stamp
                     0 Index of first forwarder reference

                          BA ?ResolveWeakReference@Details@Platform@@YAPE$AAVObject@2@AEBU_GUID@@PEAPEAU__abi_IUnknown@@@Z
                          AD ?GetWeakReference@Details@Platform@@YAPEAU__abi_IUnknown@@QE$ADVObject@2@@Z
                          15 ??0GridLength@Xaml@UI@Windows@@QEAA@NW4GridUnitType@123@@Z
                          B3 ?ReCreateException@Exception@Platform@@SAPE$AAV12@H@Z
                          EE ?__abi_cast_String_to_Object@__abi_details@@YAPE$AAVObject@Platform@@PE$AAVString@3@@Z
                           A ??0ChangedStateException@Platform@@QE$AAA@XZ
                          14 ??0FailureException@Platform@@QE$AAA@XZ
                          2A ??0OutOfMemoryException@Platform@@QE$AAA@XZ
                          19 ??0InvalidArgumentException@Platform@@QE$AAA@XZ
                          5B ?CreateException@Exception@Platform@@SAPE$AAV12@HPE$AAVString@2@@Z
                          F9 ?get@Message@Exception@Platform@@QE$AAAPE$AAVString@3@XZ
                          28 ??0OutOfBoundsException@Platform@@QE$AAA@XZ
                          5A ?CreateException@Exception@Platform@@SAPE$AAV12@H@Z
                          F7 ?get@FullName@Type@Platform@@QE$AAAPE$AAVString@3@XZ
                          AC ?GetTypeCode@Type@Platform@@SA?AW4TypeCode@2@PE$AAV12@@Z
                          AF ?InitializeData@Details@Platform@@YAJH@Z
                          D5 ?UninitializeData@Details@Platform@@YAXH@Z
                          80 ?GetActivationFactoryByPCWSTR@@YAJPEAXAEAVGuid@Platform@@PEAPEAX@Z
                          DB ?__abi_FailFast@@YAXXZ
                          B4 ?ReCreateFromException@Details@Platform@@YAJPE$AAVException@2@@Z
                          9B ?GetIidsFn@@YAJHPEAKPEBU__s_GUID@@PEAPEAVGuid@Platform@@@Z
                          9A ?GetIBoxVtable@Details@Platform@@YAPEAXPEAX@Z
                          5C ?CreateValue@Details@Platform@@YAPE$AAVObject@2@W4TypeCode@2@PEBX@Z
                          ED ?__abi_cast_Object_to_String@__abi_details@@YAPE$AAVString@Platform@@_NPE$AAVObject@3@@Z
                          20 ??0NullReferenceException@Platform@@QE$AAA@XZ
                          77 ?EventSourceGetTargetArrayEvent@Details@Platform@@YAPEAXPEAXIPEBXPEA_J@Z
                          78 ?EventSourceGetTargetArraySize@Details@Platform@@YAIPEAX@Z
                          76 ?EventSourceGetTargetArray@Details@Platform@@YAPEAXPEAXPEAUEventLock@12@@Z
                          DC ?__abi_ObjectToString@__abi_details@@YAPE$AAVString@Platform@@PE$AAVObject@3@_N@Z
                           F ??0DisconnectedException@Platform@@QE$AAA@XZ
                           D ??0Delegate@Platform@@QE$AAA@XZ
                          EF ?__abi_make_type_id@@YAPE$AAVType@Platform@@AEBU__abi_type_descriptor@@@Z
                          45 ??BType@Platform@@SA?AVTypeName@Interop@Xaml@UI@Windows@@PE$AAV01@@Z
                          13 ??0FailureException@Platform@@QE$AAA@PE$AAVString@1@@Z
                          1E ??0NotImplementedException@Platform@@QE$AAA@XZ
                          56 ?AllocateException@Heap@Details@Platform@@SAPEAX_K0@Z
                          A0 ?GetType@Object@Platform@@QE$AAAPE$AAVType@2@XZ
                          54 ?Allocate@Heap@Details@Platform@@SAPEAX_K0@Z
                          E6 ?__abi_WinRTraiseNotImplementedException@@YAXXZ
                          E5 ?__abi_WinRTraiseInvalidCastException@@YAXXZ
                          E7 ?__abi_WinRTraiseNullReferenceException@@YAXXZ
                          E9 ?__abi_WinRTraiseOperationCanceledException@@YAXXZ
                          E3 ?__abi_WinRTraiseFailureException@@YAXXZ
                          DE ?__abi_WinRTraiseAccessDeniedException@@YAXXZ
                          EB ?__abi_WinRTraiseOutOfMemoryException@@YAXXZ
                          E4 ?__abi_WinRTraiseInvalidArgumentException@@YAXXZ
                          EA ?__abi_WinRTraiseOutOfBoundsException@@YAXXZ
                          E0 ?__abi_WinRTraiseChangedStateException@@YAXXZ
                          E1 ?__abi_WinRTraiseClassNotRegisteredException@@YAXXZ
                          EC ?__abi_WinRTraiseWrongThreadException@@YAXXZ
                          E2 ?__abi_WinRTraiseDisconnectedException@@YAXXZ
                          E8 ?__abi_WinRTraiseObjectDisposedException@@YAXXZ
                          DF ?__abi_WinRTraiseCOMException@@YAXJ@Z
                          7B ?EventSourceUninitialize@Details@Platform@@YAXPEAPEAX@Z
                          79 ?EventSourceInitialize@Details@Platform@@YAXPEAPEAX@Z
                          7A ?EventSourceRemove@Details@Platform@@YAXPEAPEAXPEAUEventLock@12@VEventRegistrationToken@Foundation@Windows@@@Z
                          75 ?EventSourceAdd@Details@Platform@@YA?AVEventRegistrationToken@Foundation@Windows@@PEAPEAXPEAUEventLock@12@PE$AAVDelegate@2@@Z
                          B9 ?ReleaseTarget@ControlBlock@Details@Platform@@AEAAXXZ
                          52 ?AlignedFree@Heap@Details@Platform@@SAXPEAX@Z
                          7D ?Free@Heap@Details@Platform@@SAXPEAX@Z
                          21 ??0Object@Platform@@QE$AAA@XZ
                          99 ?GetIBoxArrayVtable@Details@Platform@@YAPEAXPEAX@Z
                          81 ?GetCmdArguments@Details@Platform@@YAPEAPEA_WPEAH@Z

    msvcrt.dll
             140092360 Import Address Table
             1400D6A20 Import Name Table
                     0 time date stamp
                     0 Index of first forwarder reference

                         492 memcpy
                         494 memmove
                         486 malloc
                          BF _callnewh
                         4B1 setlocale
                          6C ___lc_collate_cp_func
                          6D ___lc_handle_func
                          6B ___lc_codepage_func
                          8A __pctype_func
                         425 calloc
                         491 memcmp
                         412 abort
                          5B __CxxFrameHandler3
                         369 _vsnwprintf
                         493 memcpy_s
                         29E _purecall
                          14 ??3@YAXPEAX@Z
                         50D wcsncpy_s
                          11 ??1exception@@UEAA@XZ
                           D ??0exception@@QEAA@XZ
                           C ??0exception@@QEAA@AEBV0@@Z
                         367 _vsnprintf_s
                         514 wcsstr
                         495 memmove_s
                          63 __ExceptionPtrDestroy
                          5F __ExceptionPtrCopy
                          64 __ExceptionPtrRethrow
                          62 __ExceptionPtrCurrentException
                          61 __ExceptionPtrCreate
                          2F ?terminate@@YAXXZ
                          4F _HUGE
                          31 ?what@exception@@UEBAPEBDXZ
                           A ??0exception@@QEAA@AEBQEBD@Z
                         510 wcsrchr
                         105 _errno
                         518 wcstol
                         44C free
                           6 ??0bad_cast@@QEAA@AEBV0@@Z
                           F ??1bad_cast@@UEAA@XZ
                           7 ??0bad_cast@@QEAA@PEBD@Z
                         4C1 strchr
                         4A9 realloc
                         496 memset
                         508 wcslen
                          4B _CxxThrowException
                          12 ??1type_info@@UEAA@XZ
                         1E6 _lock
                         341 _unlock
                          7B __dllonexit
                          57 __C_specific_handler
                         290 _onexit
                          55 _XcptFilter
                          AE _amsg_exit
                          7F __getmainargs
                          8E __set_app_type
                         432 exit
                         10E _exit
                          C1 _cexit
                         199 _ismbblead
                          90 __setusermatherr
                         17D _initterm
                          A2 _acmdln
                         127 _fmode
                          D2 _commode
                         385 _wcsdup
                          75 __crtCompareStringW
                          79 __crtLCMapStringW
                         3EA _wsetlocale
                           B ??0exception@@QEAA@AEBQEBDH@Z
                          6E ___mb_cur_max_func

    api-ms-win-core-winrt-error-l1-1-0.dll
             140092280 Import Address Table
             1400D6940 Import Name Table
                     0 time date stamp
                     0 Index of first forwarder reference

                           A SetRestrictedErrorInfo
                           4 RoOriginateError
                           2 RoFailFastWithErrorContext

    api-ms-win-core-winrt-error-l1-1-1.dll
             1400922A0 Import Address Table
             1400D6960 Import Name Table
                     0 time date stamp
                     0 Index of first forwarder reference

                           7 RoReportUnhandledError

    api-ms-win-core-winrt-string-l1-1-0.dll
             1400922B0 Import Address Table
             1400D6970 Import Name Table
                     0 time date stamp
                     0 Index of first forwarder reference

                           A WindowsCreateString
                           9 WindowsConcatString
                           8 WindowsCompareStringOrdinal
                           B WindowsCreateStringReference
                           C WindowsDeleteString
                           E WindowsDuplicateString
                           F WindowsGetStringLen
                          10 WindowsGetStringRawBuffer
                          12 WindowsIsStringEmpty

    api-ms-win-core-util-l1-1-0.dll
             140092268 Import Address Table
             1400D6928 Import Name Table
                     0 time date stamp
                     0 Index of first forwarder reference

                           1 DecodePointer
                           4 EncodePointer

    api-ms-win-core-profile-l1-1-0.dll
             140092120 Import Address Table
             1400D67E0 Import Name Table
                     0 time date stamp
                     0 Index of first forwarder reference

                           0 QueryPerformanceCounter

    api-ms-win-core-sysinfo-l1-1-0.dll
             140092228 Import Address Table
             1400D68E8 Import Name Table
                     0 time date stamp
                     0 Index of first forwarder reference

                          1A GetTickCount
                          16 GetSystemTimeAsFileTime

  Summary

        D000 .data
        A000 .pdata
       47000 .rdata
        3000 .reloc
        1000 .rsrc
       91000 .text
