Microsoft (R) COFF/PE Dumper Version 14.29.30137.0
Copyright (C) Microsoft Corporation.  All rights reserved.


Dump of file C:\Windows\WinSxS\amd64_microsoft-windows-r..s-regkeys-component_31bf3856ad364e35_10.0.19041.1023_none_a465e131bcf39899\rdpudd.dll

File Type: DLL

  Image has the following dependencies:

    WIN32K.SYS
    ntoskrnl.exe

  Section contains the following imports:

    WIN32K.SYS
             1C0018000 Import Address Table
             1C0018228 Import Name Table
                     0 time date stamp
                     0 Index of first forwarder reference

                          14 EngBugCheckEx
                          12 EngAssociateSurface
                          32 EngDeletePalette
                          37 EngDeleteSurface
                          47 EngFreeMem
                          A0 EngUnlockSurface
                          6B EngLockSurface
                           D EngAllocMem
                          21 EngCreateDeviceSurface
                          1E EngCreateBitmap
                          39 EngDeviceIoControl
                          4E EngGetCurrentThreadId
                          4D EngGetCurrentProcessId
                          25 EngCreatePalette
                          97 EngStrokePath
                          99 EngTextOut
                          13 EngBitBlt
                          1C EngCopyBits
                          BD PATHOBJ_bEnum
                          C4 PATHOBJ_vGetBounds
                          C2 PATHOBJ_vEnumStart
                          F9 XLATEOBJ_iXlate
                          82 EngQueryPerformanceCounter
                           6 CLIPOBJ_cEnumStart
                           5 CLIPOBJ_bEnum
                          83 EngQueryPerformanceFrequency
                          C5 RtlAnsiCharToUnicodeChar

    ntoskrnl.exe
             1C00180E0 Import Address Table
             1C0018308 Import Name Table
                     0 time date stamp
                     0 Index of first forwarder reference

                         AE0 ZwOpenProcessTokenEx
                         B06 ZwQueryInformationToken
                         A89 ZwClose
                         AE3 ZwOpenSection
                         888 RtlInitializeSid
                         8D5 RtlMapGenericMask
                         942 RtlSubAuthoritySid
                         92E RtlSetDaclSecurityDescriptor
                         5CC MmUnmapViewInSystemSpace
                         33B IoGetFileObjectGenericMapping
                         52E KeWaitForMultipleObjects
                         673 ObfDereferenceObject
                         A9F ZwCreateSection
                         5A3 MmMapViewInSystemSpace
                         87F RtlInitUnicodeString
                         333 IoGetDeviceObjectPointer
                         8C8 RtlLengthSid
                         8C6 RtlLengthRequiredSid
                         793 RtlAddAccessAllowedAce
                         505 KeSetEvent
                         663 ObReferenceObjectByHandle
                         6EE PsGetCurrentProcessSessionId
                          A3 ExAllocatePoolWithTag
                         7DF RtlCreateAcl
                          CA ExFreePoolWithTag
                         7E6 RtlCreateSecurityDescriptor
                         9B8 SeExports
                         2F9 IoCreateSynchronizationEvent
                         ADE ZwOpenProcess
                         8CF RtlLookupElementGenericTableAvl

  Summary

        3000 .data
        1000 .idata
        1000 .pdata
        3000 .rdata
        1000 .reloc
        1000 .rsrc
       10000 .text
        1000 GFIDS
