Microsoft (R) COFF/PE Dumper Version 14.29.30137.0
Copyright (C) Microsoft Corporation.  All rights reserved.


Dump of file C:\Windows\WinSxS\amd64_microsoft-windows-a..ence-mitigations-c3_31bf3856ad364e35_10.0.19041.1_none_c215464191a824f6\AcGenral.dll

File Type: DLL

  Image has the following dependencies:

    apphelp.dll
    msvcrt.dll
    ntdll.dll
    api-ms-win-service-core-l1-1-1.dll
    api-ms-win-service-winsvc-l1-1-0.dll
    api-ms-win-service-management-l1-1-0.dll
    api-ms-win-service-management-l2-1-0.dll
    api-ms-win-eventing-provider-l1-1-0.dll
    SHLWAPI.dll
    USER32.dll
    ole32.dll
    SHELL32.dll
    USERENV.dll
    KERNEL32.dll
    ADVAPI32.dll
    RPCRT4.dll
    MPR.dll
    SspiCli.dll
    api-ms-win-core-apiquery-l1-1-0.dll

  Image has the following delay load dependencies:

    ext-ms-win-ntuser-windowstation-l1-1-0.dll
    pcacli.dll

  Section contains the following exports for AcGenral.dll

    00000000 characteristics
    26918316 time date stamp
        0.00 version
           1 ordinal base
           2 number of functions
           2 number of names

    ordinal hint RVA      name

          1    0 00004B50 GetHookAPIs
          2    1 00004C00 NotifyShims

  Section contains the following imports:

    apphelp.dll
             18003D760 Import Address Table
             1800557E8 Import Name Table
                     0 time date stamp
                     0 Index of first forwarder reference

                          B8 SdbReleaseDatabase
                          1B SE_CALLBACK_Lookup
                          34 SE_ShimDPF
                          85 SdbGetStringTagPtr
                          5A SdbFindNextTag
                          53 SdbFindFirstTag
                          9A SdbOpenLocalDatabase
                          1A SE_CALLBACK_AddHook
                          2A SE_GetShimId
                          1F SE_COM_HookObject
                          20 SE_COM_Lookup
                          1D SE_COM_AddServer
                          1C SE_COM_AddHook
                          8A SdbInitDatabase
                          7E SdbGetPDBFromGUID
                          BA SdbResolveDatabase

    msvcrt.dll
             18003D7E8 Import Address Table
             180055870 Import Name Table
                     0 time date stamp
                     0 Index of first forwarder reference

                          5B __CxxFrameHandler3
                         38A _wcsicmp
                         369 _vsnwprintf
                          55 _XcptFilter
                          AE _amsg_exit
                         44C free
                         394 _wcsnicmp
                         4C1 strchr
                         4D9 strtoul
                         518 wcstol
                         420 atoi
                         2FA _stricmp
                         363 _vsnprintf
                         4D4 strstr
                         50B wcsncmp
                         405 _wtoi
                         500 wcscat_s
                         517 wcstok_s
                         4D2 strrchr
                         510 wcsrchr
                         501 wcschr
                         50F wcspbrk
                         3A6 _wcsupr
                         514 wcsstr
                         513 wcsspn
                         360 _vscwprintf
                         478 iswspace
                         3F6 _wsplitpath_s
                         472 iswctype
                         4EB towlower
                         4EC towupper
                         505 wcscpy_s
                          12 ??1type_info@@UEAA@XZ
                         486 malloc
                         17D _initterm
                          57 __C_specific_handler
                          2F ?terminate@@YAXXZ
                         1E6 _lock
                         341 _unlock
                          7B __dllonexit
                         290 _onexit
                          4B _CxxThrowException
                         502 wcscmp
                         1E1 _local_unwind
                         492 memcpy
                         494 memmove
                         496 memset
                         4C2 strcmp

    ntdll.dll
             18003D970 Import Address Table
             1800559F8 Import Name Table
                     0 time date stamp
                     0 Index of first forwarder reference

                         1EA NtQueryObject
                         5D0 RtlSubAuthoritySid
                         1DF NtQueryInformationToken
                         484 RtlInitializeSid
                         4CF RtlLengthRequiredSid
                         4B0 RtlIsDosDeviceName_U
                         3FF RtlGUIDFromString
                         46E RtlInitUnicodeString
                         5F6 RtlUnicodeStringToInteger
                         2D8 RtlAnsiStringToUnicodeString
                         461 RtlInitAnsiString
                          FD NtClose
                         247 NtSetInformationProcess
                          22 DbgPrint
                         434 RtlGetOwnerSecurityDescriptor
                         1F2 NtQuerySecurityObject
                         19F NtOpenFile
                         396 RtlDosPathNameToNtPathName_U
                         432 RtlGetNtSystemRoot
                         34A RtlCreateServiceSid
                         627 RtlVirtualUnwind
                         4E8 RtlLookupFunctionEntry
                         2F2 RtlCaptureContext
                         3F5 RtlFreeHeap
                         2D2 RtlAllocateHeap
                         3B9 RtlEqualSid
                         3FC RtlFreeUnicodeString
                         3EF RtlFormatCurrentUserKeyPath
                         263 NtSetValueKey
                         11B NtCreateKey
                         1FD NtQueryValueKey
                         1A2 NtOpenKey
                         552 RtlReAllocateHeap
                         45A RtlImageNtHeader
                         4B6 RtlIsNameInExpression
                         1AC NtOpenProcessToken
                         4FD RtlNtStatusToDosError
                         1B5 NtOpenThreadToken

    api-ms-win-service-core-l1-1-1.dll
             18003D708 Import Address Table
             180055790 Import Name Table
                     0 time date stamp
                     0 Index of first forwarder reference

                           0 EnumDependentServicesW

    api-ms-win-service-winsvc-l1-1-0.dll
             18003D750 Import Address Table
             1800557D8 Import Name Table
                     0 time date stamp
                     0 Index of first forwarder reference

                           2 ControlService

    api-ms-win-service-management-l1-1-0.dll
             18003D718 Import Address Table
             1800557A0 Import Name Table
                     0 time date stamp
                     0 Index of first forwarder reference

                           3 DeleteService
                           4 OpenSCManagerW
                           0 CloseServiceHandle
                           5 OpenServiceW

    api-ms-win-service-management-l2-1-0.dll
             18003D740 Import Address Table
             1800557C8 Import Name Table
                     0 time date stamp
                     0 Index of first forwarder reference

                           6 QueryServiceStatusEx

    api-ms-win-eventing-provider-l1-1-0.dll
             18003D6F8 Import Address Table
             180055780 Import Name Table
                     0 time date stamp
                     0 Index of first forwarder reference

                           9 EventWriteTransfer

    SHLWAPI.dll
             18003D5F8 Import Address Table
             180055680 Import Name Table
                     0 time date stamp
                     0 Index of first forwarder reference

                         108 SHStrDupW
                          C7 SHGetValueW

    USER32.dll
             18003D620 Import Address Table
             1800556A8 Import Name Table
                     0 time date stamp
                     0 Index of first forwarder reference

                         131 GetClassNameW
                         359 SetPropW
                         247 IsWindow
                         2B0 PostQuitMessage
                         328 SetCursor
                         159 GetGUIThreadInfo
                         1F8 GetWindowThreadProcessId
                          FD EnumDisplayDevicesW
                         35A SetRect
                         1C7 GetSystemMetrics
                         2F3 RegisterSuspendResumeNotification
                         318 SendMessageW
                         258 LoadCursorW
                         3AC TranslateMessage
                         1C1 GetShellWindow
                         38C ShowWindow
                           8 AllowSetForegroundWindow
                         293 MsgWaitForMultipleObjects
                          BD DispatchMessageW
                         18B GetMonitorInfoW
                         2AB PeekMessageW

    ole32.dll
             18003DAA8 Import Address Table
             180055B30 Import Name Table
                     0 time date stamp
                     0 Index of first forwarder reference

                          8C CoTaskMemFree
                          2B CoCreateInstance
                          54 CoGetObject
                         20C StringFromGUID2

    SHELL32.dll
             18003D5C0 Import Address Table
             180055648 Import Name Table
                     0 time date stamp
                     0 Index of first forwarder reference

                         14F SHGetFolderPathW
                         16D SHGetSpecialFolderPathW
                          8C SHChangeNotify
                             Ordinal   165
                          9C SHCreateDirectoryExW
                         14E SHGetFolderPathEx

    USERENV.dll
             18003D6D0 Import Address Table
             180055758 Import Name Table
                     0 time date stamp
                     0 Index of first forwarder reference

                          17 GetAllUsersProfileDirectoryW
                          26 GetUserProfileDirectoryW

    KERNEL32.dll
             18003D260 Import Address Table
             1800552E8 Import Name Table
                     0 time date stamp
                     0 Index of first forwarder reference

                         276 GetLongPathNameW
                         262 GetFullPathNameW
                         443 QueryActCtxSettingsW
                         2D6 GetShortPathNameW
                         648 lstrcmpiW
                          CD CreateFileW
                         4CE ResolveDelayLoadedAPI
                         110 DelayLoadFailureHook
                         4B7 ReleaseSRWLockExclusive
                           0 AcquireSRWLockExclusive
                         5F0 WakeAllConditionVariable
                         58F SleepConditionVariableSRW
                         4E7 SearchPathW
                         331 GetWindowsDirectoryW
                         219 GetCurrentDirectoryW
                         433 ProcessIdToSessionId
                          C1 CreateEventW
                         24E GetFileAttributesW
                         2E9 GetSystemDirectoryW
                         249 GetFileAttributesA
                          9C CompareStringOrdinal
                         4D2 ResumeThread
                          7D CheckElevationEnabled
                         5DD VirtualProtect
                         27C GetModuleFileNameW
                          F4 CreateThread
                         16A ExpandEnvironmentStringsW
                         320 GetUserDefaultUILanguage
                         524 SetErrorMode
                          88 CloseHandle
                         40D OpenMutexW
                         220 GetCurrentProcessId
                          DC CreateMutexW
                         58D Sleep
                         451 QueryPerformanceCounter
                         224 GetCurrentThreadId
                         2F2 GetSystemTimeAsFileTime
                         310 GetTickCount
                         5BE UnhandledExceptionFilter
                         57D SetUnhandledExceptionFilter
                         21F GetCurrentProcess
                         59C TerminateProcess
                         280 GetModuleHandleW
                         2B7 GetProcAddress
                         350 HeapAlloc
                         2BD GetProcessHeap
                         137 EnterCriticalSection
                         3C3 LeaveCriticalSection
                         359 HeapSize
                         35C HeapValidate
                         36A InitializeCriticalSectionAndSpinCount
                         5D7 VirtualAlloc
                         5DA VirtualFree
                         550 SetProcessInformation
                         166 ExitProcess
                         523 SetEnvironmentVariableW
                         242 GetEnvironmentVariableW
                         397 IsWow64Process
                         1DE GetCommandLineA
                          E2 CreateProcessA
                         5E8 WaitForSingleObject
                         245 GetExitCodeProcess
                         269 GetLastError
                         3D5 LocalFree
                         540 SetLastError
                         27B GetModuleFileNameA
                         354 HeapFree
                         19E FindResourceW
                         58C SizeofResource
                         3CD LoadResource
                         3E1 LockResource
                         3F5 MultiByteToWideChar
                         522 SetEnvironmentVariableA
                         3C9 LoadLibraryExW
                         1B3 FreeLibrary
                         3CA LoadLibraryW
                         1DF GetCommandLineW
                         651 lstrlenW
                          B2 CreateActCtxW
                         445 QueryActCtxW
                         4B3 ReleaseActCtx
                         311 GetTickCount64
                         3EE MoveFileExW
                         113 DeleteCriticalSection
                         3D0 LocalAlloc
                          9B CompareStringEx
                         3B4 LCIDToLocaleName
                         26C GetLocaleInfoEx
                         3B6 LCMapStringEx
                         357 HeapReAlloc
                         60F WideCharToMultiByte
                         190 FindNLSStringEx
                         386 IsNLSDefinedString
                           8 AddDllDirectory

    ADVAPI32.dll
             18003D1A0 Import Address Table
             180055228 Import Name Table
                     0 time date stamp
                     0 Index of first forwarder reference

                         2A8 RegSetValueExA
                         299 RegQueryValueExW
                         25B RegCloseKey
                         264 RegCreateKeyExW
                         293 RegQueryInfoKeyW
                         27D RegEnumValueW
                         2A9 RegSetValueExW
                         27A RegEnumKeyExW
                          83 ConvertStringSidToSidW
                         1A9 LookupAccountSidW
                         26A RegDeleteKeyExW
                         273 RegDeleteValueW
                         215 OpenProcessToken
                         281 RegGetValueW
                         285 RegLoadKeyW
                         2AC RegUnLoadKeyW
                         1AF LookupPrivilegeValueW
                          1F AdjustTokenPrivileges
                         170 GetTokenInformation
                         2FB StartServiceW
                          93 CreateWellKnownSid
                         250 QueryServiceStatus
                         28C RegOpenKeyExW

    RPCRT4.dll
             18003D568 Import Address Table
             1800555F0 Import Name Table
                     0 time date stamp
                     0 Index of first forwarder reference

                         176 RpcBindingFromStringBindingW
                         210 RpcStringBindingComposeW
                          2E I_RpcExceptionFilter
                         16C RpcAsyncCompleteCall
                         16E RpcAsyncInitializeHandle
                         214 RpcStringFreeW
                         16B RpcAsyncCancelCall
                         174 RpcBindingFree
                          94 Ndr64AsyncClientCall
                         185 RpcBindingSetAuthInfoExW

    MPR.dll
             18003D558 Import Address Table
             1800555E0 Import Name Table
                     0 time date stamp
                     0 Index of first forwarder reference

                          2D WNetGetConnectionW

    SspiCli.dll
             18003D610 Import Address Table
             180055698 Import Name Table
                     0 time date stamp
                     0 Index of first forwarder reference

                          19 GetUserNameExW

    api-ms-win-core-apiquery-l1-1-0.dll
             18003D6E8 Import Address Table
             180055770 Import Name Table
                     0 time date stamp
                     0 Index of first forwarder reference

                           0 ApiSetQueryApiSetPresence

  Section contains the following delay load imports:

    ext-ms-win-ntuser-windowstation-l1-1-0.dll
              00000001 Characteristics
      0000000180058D30 Address of HMODULE
      000000018005D000 Import Address Table
      0000000180054F68 Import Name Table
      0000000180054FF8 Bound Import Name Table
      0000000000000000 Unload Import Name Table
                     0 time date stamp

                                    000000018000227A     6 GetThreadDesktop
                                    0000000180002268     7 GetUserObjectInformationW
                                    0000000180002186     5 GetProcessWindowStation

    pcacli.dll
              00000001 Characteristics
      0000000180058D48 Address of HMODULE
      000000018005D020 Import Address Table
      0000000180054F88 Import Name Table
      0000000180055018 Bound Import Name Table
      0000000000000000 Unload Import Name Table
                     0 time date stamp

                                    000000018000228C     3 PcaMonitorProcess

  Summary

        2000 .data
        1000 .didat
        3000 .pdata
       1C000 .rdata
        1000 .reloc
        2000 .rsrc
       3B000 .text
