Microsoft (R) COFF/PE Dumper Version 14.29.30137.0
Copyright (C) Microsoft Corporation.  All rights reserved.


Dump of file C:\Windows\WinSxS\amd64_microsoft-windows-r..s-regkeys-component_31bf3856ad364e35_10.0.19041.1_none_e57f3827a72cb30c\rdpudd.dll

File Type: DLL

  Image has the following dependencies:

    WIN32K.SYS
    ntoskrnl.exe

  Section contains the following imports:

    WIN32K.SYS
             1C0018000 Import Address Table
             1C0018228 Import Name Table
                     0 time date stamp
                     0 Index of first forwarder reference

                          14 EngBugCheckEx
                          12 EngAssociateSurface
                          32 EngDeletePalette
                          37 EngDeleteSurface
                          47 EngFreeMem
                          A0 EngUnlockSurface
                          6B EngLockSurface
                           D EngAllocMem
                          21 EngCreateDeviceSurface
                          1E EngCreateBitmap
                          39 EngDeviceIoControl
                          4E EngGetCurrentThreadId
                          4D EngGetCurrentProcessId
                          25 EngCreatePalette
                          97 EngStrokePath
                          99 EngTextOut
                          13 EngBitBlt
                          1C EngCopyBits
                          BD PATHOBJ_bEnum
                          C4 PATHOBJ_vGetBounds
                          C2 PATHOBJ_vEnumStart
                          F9 XLATEOBJ_iXlate
                          82 EngQueryPerformanceCounter
                           6 CLIPOBJ_cEnumStart
                           5 CLIPOBJ_bEnum
                          83 EngQueryPerformanceFrequency
                          C5 RtlAnsiCharToUnicodeChar

    ntoskrnl.exe
             1C00180E0 Import Address Table
             1C0018308 Import Name Table
                     0 time date stamp
                     0 Index of first forwarder reference

                         ADF ZwOpenProcessTokenEx
                         B05 ZwQueryInformationToken
                         A88 ZwClose
                         AE2 ZwOpenSection
                         887 RtlInitializeSid
                         8D4 RtlMapGenericMask
                         941 RtlSubAuthoritySid
                         92D RtlSetDaclSecurityDescriptor
                         5CB MmUnmapViewInSystemSpace
                         33B IoGetFileObjectGenericMapping
                         52E KeWaitForMultipleObjects
                         672 ObfDereferenceObject
                         A9E ZwCreateSection
                         5A2 MmMapViewInSystemSpace
                         87E RtlInitUnicodeString
                         333 IoGetDeviceObjectPointer
                         8C7 RtlLengthSid
                         8C5 RtlLengthRequiredSid
                         792 RtlAddAccessAllowedAce
                         505 KeSetEvent
                         662 ObReferenceObjectByHandle
                         6ED PsGetCurrentProcessSessionId
                          A3 ExAllocatePoolWithTag
                         7DE RtlCreateAcl
                          CA ExFreePoolWithTag
                         7E5 RtlCreateSecurityDescriptor
                         9B7 SeExports
                         2F9 IoCreateSynchronizationEvent
                         ADD ZwOpenProcess
                         8CE RtlLookupElementGenericTableAvl

  Summary

        3000 .data
        1000 .idata
        1000 .pdata
        3000 .rdata
        1000 .reloc
        1000 .rsrc
       10000 .text
        1000 GFIDS
