Microsoft (R) COFF/PE Dumper Version 14.29.30137.0
Copyright (C) Microsoft Corporation.  All rights reserved.


Dump of file C:\Windows\WinSxS\amd64_dual_xboxgip.inf_31bf3856ad364e35_10.0.19041.1387_none_e0b874773d414ab8\devauthe.sys

File Type: DLL

  Image has the following dependencies:

    ntoskrnl.exe
    cng.sys

  Section contains the following imports:

    ntoskrnl.exe
             1C000C0A8 Import Address Table
             1C000C1E0 Import Name Table
                     0 time date stamp
                     0 Index of first forwarder reference

                         7C7 RtlCompareMemory
                         B9F atoi
                         BCA strncpy
                         94A RtlTimeFieldsToTime
                          A3 ExAllocatePoolWithTag
                          CA ExFreePoolWithTag
                         7DD RtlCopyUnicodeString

    cng.sys
             1C000C000 Import Address Table
             1C000C138 Import Name Table
                     0 time date stamp
                     0 Index of first forwarder reference

                          14 BCryptGenRandom
                          23 BCryptSecretAgreement
                           A BCryptDestroySecret
                           5 BCryptDeriveKey
                          10 BCryptExportKey
                          15 BCryptGenerateKeyPair
                          11 BCryptFinalizeKeyPair
                           2 BCryptCreateHash
                          1A BCryptHashData
                           D BCryptEncrypt
                           9 BCryptDestroyKey
                          18 BCryptGetProperty
                          28 BCryptVerifySignature
                          1E BCryptOpenAlgorithmProvider
                           B BCryptDuplicateHash
                          12 BCryptFinishHash
                           1 BCryptCloseAlgorithmProvider
                           8 BCryptDestroyHash
                          1C BCryptImportKeyPair
                          25 BCryptSignHash

  Section contains the following exports for DevAuthE.sys

    00000000 characteristics
    782D994E time date stamp
        0.00 version
           1 ordinal base
          10 number of functions
          10 number of names

    ordinal hint RVA      name

          1    0 00001590 DevAuthExportKey
          2    1 00001650 DevAuthGetDeviceInfo
          3    2 00001400 DevAuthGetHostMessage
          4    3 00001390 DevAuthGetStatus
          5    4 00001800 DevAuthGetTelemetryInfo
          6    5 000014E0 DevAuthProcessDeviceMessage
          7    6 00001140 DevAuthRegister
          8    7 00001300 DevAuthUnregister
          9    8 00001010 DllInitialize
         10    9 0000D010 DllUnload

  Summary

        1000 .data
        1000 .edata
        1000 .idata
        1000 .pdata
        3000 .rdata
        1000 .reloc
        1000 .rsrc
        6000 .text
        1000 GFIDS
        1000 INIT
        1000 PAGE
