Microsoft (R) COFF/PE Dumper Version 14.29.30137.0
Copyright (C) Microsoft Corporation.  All rights reserved.


Dump of file C:\Windows\WinSxS\amd64_microsoft-windows-n..-domain-clients-svc_31bf3856ad364e35_10.0.19041.964_none_21f025fe4ae682b3\FwRemoteSvr.dll

File Type: DLL

  Image has the following dependencies:

    fwbase.dll
    msvcrt.dll
    api-ms-win-eventing-classicprovider-l1-1-0.dll
    api-ms-win-core-errorhandling-l1-1-0.dll
    api-ms-win-core-heap-l2-1-0.dll
    RPCRT4.dll
    api-ms-win-core-processthreads-l1-1-0.dll
    api-ms-win-security-base-l1-1-0.dll
    api-ms-win-core-synch-l1-2-0.dll
    api-ms-win-core-profile-l1-1-0.dll
    api-ms-win-core-sysinfo-l1-1-0.dll
    api-ms-win-core-rtlsupport-l1-1-0.dll
    FirewallAPI.dll
    api-ms-win-core-delayload-l1-1-1.dll
    api-ms-win-core-delayload-l1-1-0.dll

  Image has the following delay load dependencies:

    api-ms-win-security-sddl-l1-1-0.dll

  Section contains the following exports for FwRemoteSvr.DLL

    00000000 characteristics
    E005DA78 time date stamp
        0.00 version
           1 ordinal base
           2 number of functions
           2 number of names

    ordinal hint RVA      name

          1    0 00001060 FwRpcAPIsInitialize
          2    1 000011F0 FwRpcAPIsShutdown

  Section contains the following imports:

    fwbase.dll
             180012E88 Import Address Table
             180017D58 Import Name Table
                     0 time date stamp
                     0 Index of first forwarder reference

                           4 FwAlloc
                          2A FwFree
                          88 FwSizeTMultiply
                          8F FwStringCopy
                          1C FwCloseHandle
                          3F FwHResultToWindowsError

    msvcrt.dll
             180012EC0 Import Address Table
             180017D90 Import Name Table
                     0 time date stamp
                     0 Index of first forwarder reference

                          AE _amsg_exit
                          55 _XcptFilter
                         44C free
                         486 malloc
                          57 __C_specific_handler
                         17D _initterm

    api-ms-win-eventing-classicprovider-l1-1-0.dll
             180012E68 Import Address Table
             180017D38 Import Name Table
                     0 time date stamp
                     0 Index of first forwarder reference

                           5 TraceMessage

    api-ms-win-core-errorhandling-l1-1-0.dll
             180012DA8 Import Address Table
             180017C78 Import Name Table
                     0 time date stamp
                     0 Index of first forwarder reference

                           F SetUnhandledExceptionFilter
                          11 UnhandledExceptionFilter
                           5 GetLastError

    api-ms-win-core-heap-l2-1-0.dll
             180012DC8 Import Address Table
             180017C98 Import Name Table
                     0 time date stamp
                     0 Index of first forwarder reference

                           A LocalFree

    RPCRT4.dll
             180012CF0 Import Address Table
             180017BC0 Import Name Table
                     0 time date stamp
                     0 Index of first forwarder reference

                         212 RpcStringBindingParseW
                         18A RpcBindingToStringBindingW
                          25 I_RpcBindingIsClientLocal
                         1E5 RpcServerUnregisterIfEx
                         18C RpcBindingVectorFree
                         197 RpcEpUnregister
                         1CE RpcServerInqBindings
                         1E0 RpcServerRegisterIf3
                         1F6 RpcServerUseProtseqW
                         214 RpcStringFreeW
                         1DD RpcServerRegisterAuthInfoW
                         1D3 RpcServerInqDefaultPrincNameW
                         132 NdrServerCallAll
                         131 NdrServerCall2
                         1CA RpcRevertToSelf
                         1A6 RpcImpersonateClient
                         17A RpcBindingInqAuthClientW
                         195 RpcEpRegisterW

    api-ms-win-core-processthreads-l1-1-0.dll
             180012DD8 Import Address Table
             180017CA8 Import Name Table
                     0 time date stamp
                     0 Index of first forwarder reference

                          4F TerminateProcess
                           C GetCurrentProcess
                           D GetCurrentProcessId
                           3 OpenThreadToken
                          11 GetCurrentThreadId
                          10 GetCurrentThread

    api-ms-win-security-base-l1-1-0.dll
             180012E78 Import Address Table
             180017D48 Import Name Table
                     0 time date stamp
                     0 Index of first forwarder reference

                           0 AccessCheck

    api-ms-win-core-synch-l1-2-0.dll
             180012E40 Import Address Table
             180017D10 Import Name Table
                     0 time date stamp
                     0 Index of first forwarder reference

                          2D Sleep

    api-ms-win-core-profile-l1-1-0.dll
             180012E10 Import Address Table
             180017CE0 Import Name Table
                     0 time date stamp
                     0 Index of first forwarder reference

                           0 QueryPerformanceCounter

    api-ms-win-core-sysinfo-l1-1-0.dll
             180012E50 Import Address Table
             180017D20 Import Name Table
                     0 time date stamp
                     0 Index of first forwarder reference

                          1A GetTickCount
                          16 GetSystemTimeAsFileTime

    api-ms-win-core-rtlsupport-l1-1-0.dll
             180012E20 Import Address Table
             180017CF0 Import Name Table
                     0 time date stamp
                     0 Index of first forwarder reference

                         629 RtlVirtualUnwind
                         2F3 RtlCaptureContext
                         4EA RtlLookupFunctionEntry

    FirewallAPI.dll
             180012B78 Import Address Table
             180017A48 Import Name Table
                     0 time date stamp
                     0 Index of first forwarder reference

                          58 FWRestoreDefaults
                          24 FWEnumFirewallRules
                           7 FWAddFirewallRule
                          20 FWEnumAdapters
                          26 FWEnumNetworks
                          51 FWQueryCryptoSets
                          4F FWQueryAuthenticationSets
                          54 FWQueryMainModeRules
                          50 FWQueryConnectionSecurityRules
                          52 FWQueryFirewallRules
                          25 FWEnumMainModeRules
                          16 FWDeleteAllMainModeRules
                          1B FWDeleteMainModeRule
                          63 FWSetMainModeRule
                           8 FWAddMainModeRule
                          1D FWDeletePhase2SAs
                          1C FWDeletePhase1SAs
                          28 FWEnumPhase2SAs
                          27 FWEnumPhase1SAs
                          23 FWEnumCryptoSets
                          14 FWDeleteAllCryptoSets
                          60 FWSetFirewallRule
                          41 FWGetConfig
                          42 FWGetConfig2
                          1A FWDeleteFirewallRule
                          19 FWDeleteCryptoSet
                          5D FWSetConfig
                          29 FWEnumProducts
                          43 FWGetGlobalConfig
                          44 FWGetGlobalConfig2
                          61 FWSetGlobalConfig
                          4E FWOpenPolicyStore
                          15 FWDeleteAllFirewallRules
                           D FWClosePolicyStore
                           5 FWAddConnectionSecurityRule
                          5E FWSetConnectionSecurityRule
                          18 FWDeleteConnectionSecurityRule
                          13 FWDeleteAllConnectionSecurityRules
                          22 FWEnumConnectionSecurityRules
                           4 FWAddAuthenticationSet
                          5F FWSetCryptoSet
                           6 FWAddCryptoSet
                          21 FWEnumAuthenticationSets
                          12 FWDeleteAllAuthenticationSets
                          5C FWSetAuthenticationSet
                          17 FWDeleteAuthenticationSet

    api-ms-win-core-delayload-l1-1-1.dll
             180012D98 Import Address Table
             180017C68 Import Name Table
                     0 time date stamp
                     0 Index of first forwarder reference

                           1 ResolveDelayLoadedAPI

    api-ms-win-core-delayload-l1-1-0.dll
             180012D88 Import Address Table
             180017C58 Import Name Table
                     0 time date stamp
                     0 Index of first forwarder reference

                           0 DelayLoadFailureHook

  Section contains the following delay load imports:

    api-ms-win-security-sddl-l1-1-0.dll
              00000001 Characteristics
      0000000180019600 Address of HMODULE
      000000018001B000 Import Address Table
      0000000180017838 Import Name Table
      0000000180017880 Bound Import Name Table
      0000000000000000 Unload Import Name Table
                     0 time date stamp

                                    000000018000A156     2 ConvertStringSecurityDescriptorToSecurityDescriptorW

  Summary

        1000 .data
        1000 .didat
        1000 .pdata
        E000 .rdata
        1000 .reloc
        1000 .rsrc
        A000 .text
