Microsoft (R) COFF/PE Dumper Version 14.29.30137.0
Copyright (C) Microsoft Corporation.  All rights reserved.


Dump of file C:\Windows\WinSxS\x86_microsoft-windows-b..re-bootmanager-pcat_31bf3856ad364e35_10.0.19041.2251_none_dbd05e09b004cba8\bootspaces.dll

File Type: DLL

  Section contains the following exports for bootspaces.dll

    00000000 characteristics
    7973A026 time date stamp
        0.00 version
           1 ordinal base
           3 number of functions
           3 number of names

    ordinal hint RVA      name

          1    0 000045D4 SpaceBootDestroy
          2    1 000045AD SpaceBootInitialize
          3    2 000045B7 SpaceBootReinitialize

  Image has the following dependencies:

    BootLib.dll

  Section contains the following imports:

    BootLib.dll
              1002B000 Import Address Table
              1002B0D0 Import Name Table
                     0 time date stamp
                     0 Index of first forwarder reference

                   22 BlockIoBuildPartitionIdentifier
                   15 BlGetFirmwareBootDevice
                    0 BlDeviceClose
                   20 BlUtlLoadSystemGuid
                   1B BlPdSaveData
                    5 BlDeviceOpen
                   18 BlMmFreeHeap
                   31 BlpReplaceFirmwareBootDevice
                   1C BlReplaceBootDevice
                    4 BlDeviceGetParent
                   1F BlUtlCopySmBiosTable
                    1 BlDeviceEnumerateDeviceClass
                   30 BlpPdQueryDataList
                   2F BlpPdFreeDataList
                   32 RtlAnsiStringToUnicodeString
                   4C RtlxAnsiStringToUnicodeSize
                   41 RtlInitAnsiString
                   57 _purecall
                   16 BlMmAllocateHeap
                   17 BlMmAllocatePages
                   19 BlMmFreePages
                    7 BlDeviceReadAtOffsetEx
                    3 BlDeviceGetInformation
                    2 BlDeviceFlush
                    9 BlDeviceWriteAtOffset
                   27 BlockIoGetMbrDiskSignature
                   24 BlockIoCreateDeviceEntry
                   21 BlockIoAddDevice
                   26 BlockIoGetGPTDiskSignature
                   25 BlockIoGetDiskType
                   5B memmove
                   4E _alldiv
                   50 _allmul
                   51 _allrem
                   52 _allshl
                   53 _aulldiv
                   54 _aulldvrm
                   55 _aullrem
                   56 _aullshr
                   5A memcpy
                   5C memset

  Summary

        1000 .data
        1000 .idata
        1000 .reloc
        1000 .rsrc
       23000 .text
        6000 PAGE
